# generated using pymatgen
data_La2Pd2O5
_symmetry_space_group_name_H-M   'P 1'
_cell_length_a   18.80540256
_cell_length_b   18.80540256
_cell_length_c   16.72154368
_cell_angle_alpha   90.00000000
_cell_angle_beta   90.00000000
_cell_angle_gamma   90.00000000
_symmetry_Int_Tables_number   1
_chemical_formula_structural   La2Pd2O5
_chemical_formula_sum   'La96 Pd96 O240'
_cell_volume   5913.45963945
_cell_formula_units_Z   48
loop_
 _symmetry_equiv_pos_site_id
 _symmetry_equiv_pos_as_xyz
  1  'x, y, z'
loop_
 _atom_site_type_symbol
 _atom_site_label
 _atom_site_symmetry_multiplicity
 _atom_site_fract_x
 _atom_site_fract_y
 _atom_site_fract_z
 _atom_site_occupancy
  La  La0  1  0.59276595  0.53896853  0.16666667  1
  La  La1  1  0.59276595  0.53896853  0.50000000  1
  La  La2  1  0.59276595  0.53896853  0.83333333  1
  La  La3  1  0.09276595  0.53896853  0.16666667  1
  La  La4  1  0.09276595  0.53896853  0.50000000  1
  La  La5  1  0.09276595  0.53896853  0.83333333  1
  La  La6  1  0.34276595  0.28896853  0.16666667  1
  La  La7  1  0.34276595  0.28896853  0.50000000  1
  La  La8  1  0.34276595  0.28896853  0.83333333  1
  La  La9  1  0.59276595  0.03896853  0.16666667  1
  La  La10  1  0.59276595  0.03896853  0.50000000  1
  La  La11  1  0.59276595  0.03896853  0.83333333  1
  La  La12  1  -0.15723405  0.28896853  0.16666667  1
  La  La13  1  -0.15723405  0.28896853  0.50000000  1
  La  La14  1  -0.15723405  0.28896853  0.83333333  1
  La  La15  1  0.09276595  0.03896853  0.16666667  1
  La  La16  1  0.09276595  0.03896853  0.50000000  1
  La  La17  1  0.09276595  0.03896853  0.83333333  1
  La  La18  1  0.34276595  -0.21103147  0.16666667  1
  La  La19  1  0.34276595  -0.21103147  0.50000000  1
  La  La20  1  0.34276595  -0.21103147  0.83333333  1
  La  La21  1  -0.15723405  -0.21103147  0.16666667  1
  La  La22  1  -0.15723405  -0.21103147  0.50000000  1
  La  La23  1  -0.15723405  -0.21103147  0.83333333  1
  La  La24  1  0.71103147  0.34276595  0.00000000  1
  La  La25  1  0.71103147  0.34276595  0.33333333  1
  La  La26  1  0.71103147  0.34276595  0.66666667  1
  La  La27  1  0.21103147  0.34276595  0.00000000  1
  La  La28  1  0.21103147  0.34276595  0.33333333  1
  La  La29  1  0.21103147  0.34276595  0.66666667  1
  La  La30  1  0.46103147  0.09276595  0.00000000  1
  La  La31  1  0.46103147  0.09276595  0.33333333  1
  La  La32  1  0.46103147  0.09276595  0.66666667  1
  La  La33  1  0.71103147  -0.15723405  0.00000000  1
  La  La34  1  0.71103147  -0.15723405  0.33333333  1
  La  La35  1  0.71103147  -0.15723405  0.66666667  1
  La  La36  1  -0.03896853  0.09276595  0.00000000  1
  La  La37  1  -0.03896853  0.09276595  0.33333333  1
  La  La38  1  -0.03896853  0.09276595  0.66666667  1
  La  La39  1  0.21103147  -0.15723405  0.00000000  1
  La  La40  1  0.21103147  -0.15723405  0.33333333  1
  La  La41  1  0.21103147  -0.15723405  0.66666667  1
  La  La42  1  0.46103147  -0.40723405  0.00000000  1
  La  La43  1  0.46103147  -0.40723405  0.33333333  1
  La  La44  1  0.46103147  -0.40723405  0.66666667  1
  La  La45  1  -0.03896853  -0.40723405  0.00000000  1
  La  La46  1  -0.03896853  -0.40723405  0.33333333  1
  La  La47  1  -0.03896853  -0.40723405  0.66666667  1
  La  La48  1  0.90723405  0.46103147  0.16666667  1
  La  La49  1  0.90723405  0.46103147  0.50000000  1
  La  La50  1  0.90723405  0.46103147  0.83333333  1
  La  La51  1  0.40723405  0.46103147  0.16666667  1
  La  La52  1  0.40723405  0.46103147  0.50000000  1
  La  La53  1  0.40723405  0.46103147  0.83333333  1
  La  La54  1  0.65723405  0.21103147  0.16666667  1
  La  La55  1  0.65723405  0.21103147  0.50000000  1
  La  La56  1  0.65723405  0.21103147  0.83333333  1
  La  La57  1  0.90723405  -0.03896853  0.16666667  1
  La  La58  1  0.90723405  -0.03896853  0.50000000  1
  La  La59  1  0.90723405  -0.03896853  0.83333333  1
  La  La60  1  0.15723405  0.21103147  0.16666667  1
  La  La61  1  0.15723405  0.21103147  0.50000000  1
  La  La62  1  0.15723405  0.21103147  0.83333333  1
  La  La63  1  0.40723405  -0.03896853  0.16666667  1
  La  La64  1  0.40723405  -0.03896853  0.50000000  1
  La  La65  1  0.40723405  -0.03896853  0.83333333  1
  La  La66  1  0.65723405  -0.28896853  0.16666667  1
  La  La67  1  0.65723405  -0.28896853  0.50000000  1
  La  La68  1  0.65723405  -0.28896853  0.83333333  1
  La  La69  1  0.15723405  -0.28896853  0.16666667  1
  La  La70  1  0.15723405  -0.28896853  0.50000000  1
  La  La71  1  0.15723405  -0.28896853  0.83333333  1
  La  La72  1  0.78896853  0.65723405  0.00000000  1
  La  La73  1  0.78896853  0.65723405  0.33333333  1
  La  La74  1  0.78896853  0.65723405  0.66666667  1
  La  La75  1  0.28896853  0.65723405  0.00000000  1
  La  La76  1  0.28896853  0.65723405  0.33333333  1
  La  La77  1  0.28896853  0.65723405  0.66666667  1
  La  La78  1  0.53896853  0.40723405  0.00000000  1
  La  La79  1  0.53896853  0.40723405  0.33333333  1
  La  La80  1  0.53896853  0.40723405  0.66666667  1
  La  La81  1  0.78896853  0.15723405  0.00000000  1
  La  La82  1  0.78896853  0.15723405  0.33333333  1
  La  La83  1  0.78896853  0.15723405  0.66666667  1
  La  La84  1  0.03896853  0.40723405  0.00000000  1
  La  La85  1  0.03896853  0.40723405  0.33333333  1
  La  La86  1  0.03896853  0.40723405  0.66666667  1
  La  La87  1  0.28896853  0.15723405  0.00000000  1
  La  La88  1  0.28896853  0.15723405  0.33333333  1
  La  La89  1  0.28896853  0.15723405  0.66666667  1
  La  La90  1  0.53896853  -0.09276595  0.00000000  1
  La  La91  1  0.53896853  -0.09276595  0.33333333  1
  La  La92  1  0.53896853  -0.09276595  0.66666667  1
  La  La93  1  0.03896853  -0.09276595  0.00000000  1
  La  La94  1  0.03896853  -0.09276595  0.33333333  1
  La  La95  1  0.03896853  -0.09276595  0.66666667  1
  Pd  Pd96  1  0.67888940  0.52353852  0.00000000  1
  Pd  Pd97  1  0.67888940  0.52353852  0.33333333  1
  Pd  Pd98  1  0.67888940  0.52353852  0.66666667  1
  Pd  Pd99  1  0.17888940  0.52353852  0.00000000  1
  Pd  Pd100  1  0.17888940  0.52353852  0.33333333  1
  Pd  Pd101  1  0.17888940  0.52353852  0.66666667  1
  Pd  Pd102  1  0.42888940  0.27353852  0.00000000  1
  Pd  Pd103  1  0.42888940  0.27353852  0.33333333  1
  Pd  Pd104  1  0.42888940  0.27353852  0.66666667  1
  Pd  Pd105  1  0.67888940  0.02353852  0.00000000  1
  Pd  Pd106  1  0.67888940  0.02353852  0.33333333  1
  Pd  Pd107  1  0.67888940  0.02353852  0.66666667  1
  Pd  Pd108  1  -0.07111060  0.27353852  0.00000000  1
  Pd  Pd109  1  -0.07111060  0.27353852  0.33333333  1
  Pd  Pd110  1  -0.07111060  0.27353852  0.66666667  1
  Pd  Pd111  1  0.17888940  0.02353852  0.00000000  1
  Pd  Pd112  1  0.17888940  0.02353852  0.33333333  1
  Pd  Pd113  1  0.17888940  0.02353852  0.66666667  1
  Pd  Pd114  1  0.42888940  -0.22646148  0.00000000  1
  Pd  Pd115  1  0.42888940  -0.22646148  0.33333333  1
  Pd  Pd116  1  0.42888940  -0.22646148  0.66666667  1
  Pd  Pd117  1  -0.07111060  -0.22646148  0.00000000  1
  Pd  Pd118  1  -0.07111060  -0.22646148  0.33333333  1
  Pd  Pd119  1  -0.07111060  -0.22646148  0.66666667  1
  Pd  Pd120  1  0.77353852  0.57111060  0.16666667  1
  Pd  Pd121  1  0.77353852  0.57111060  0.50000000  1
  Pd  Pd122  1  0.77353852  0.57111060  0.83333333  1
  Pd  Pd123  1  0.27353852  0.57111060  0.16666667  1
  Pd  Pd124  1  0.27353852  0.57111060  0.50000000  1
  Pd  Pd125  1  0.27353852  0.57111060  0.83333333  1
  Pd  Pd126  1  0.52353852  0.32111060  0.16666667  1
  Pd  Pd127  1  0.52353852  0.32111060  0.50000000  1
  Pd  Pd128  1  0.52353852  0.32111060  0.83333333  1
  Pd  Pd129  1  0.77353852  0.07111060  0.16666667  1
  Pd  Pd130  1  0.77353852  0.07111060  0.50000000  1
  Pd  Pd131  1  0.77353852  0.07111060  0.83333333  1
  Pd  Pd132  1  0.02353852  0.32111060  0.16666667  1
  Pd  Pd133  1  0.02353852  0.32111060  0.50000000  1
  Pd  Pd134  1  0.02353852  0.32111060  0.83333333  1
  Pd  Pd135  1  0.27353852  0.07111060  0.16666667  1
  Pd  Pd136  1  0.27353852  0.07111060  0.50000000  1
  Pd  Pd137  1  0.27353852  0.07111060  0.83333333  1
  Pd  Pd138  1  0.52353852  -0.17888940  0.16666667  1
  Pd  Pd139  1  0.52353852  -0.17888940  0.50000000  1
  Pd  Pd140  1  0.52353852  -0.17888940  0.83333333  1
  Pd  Pd141  1  0.02353852  -0.17888940  0.16666667  1
  Pd  Pd142  1  0.02353852  -0.17888940  0.50000000  1
  Pd  Pd143  1  0.02353852  -0.17888940  0.83333333  1
  Pd  Pd144  1  0.82111060  0.47646148  0.00000000  1
  Pd  Pd145  1  0.82111060  0.47646148  0.33333333  1
  Pd  Pd146  1  0.82111060  0.47646148  0.66666667  1
  Pd  Pd147  1  0.32111060  0.47646148  0.00000000  1
  Pd  Pd148  1  0.32111060  0.47646148  0.33333333  1
  Pd  Pd149  1  0.32111060  0.47646148  0.66666667  1
  Pd  Pd150  1  0.57111060  0.22646148  0.00000000  1
  Pd  Pd151  1  0.57111060  0.22646148  0.33333333  1
  Pd  Pd152  1  0.57111060  0.22646148  0.66666667  1
  Pd  Pd153  1  0.82111060  -0.02353852  0.00000000  1
  Pd  Pd154  1  0.82111060  -0.02353852  0.33333333  1
  Pd  Pd155  1  0.82111060  -0.02353852  0.66666667  1
  Pd  Pd156  1  0.07111060  0.22646148  0.00000000  1
  Pd  Pd157  1  0.07111060  0.22646148  0.33333333  1
  Pd  Pd158  1  0.07111060  0.22646148  0.66666667  1
  Pd  Pd159  1  0.32111060  -0.02353852  0.00000000  1
  Pd  Pd160  1  0.32111060  -0.02353852  0.33333333  1
  Pd  Pd161  1  0.32111060  -0.02353852  0.66666667  1
  Pd  Pd162  1  0.57111060  -0.27353852  0.00000000  1
  Pd  Pd163  1  0.57111060  -0.27353852  0.33333333  1
  Pd  Pd164  1  0.57111060  -0.27353852  0.66666667  1
  Pd  Pd165  1  0.07111060  -0.27353852  0.00000000  1
  Pd  Pd166  1  0.07111060  -0.27353852  0.33333333  1
  Pd  Pd167  1  0.07111060  -0.27353852  0.66666667  1
  Pd  Pd168  1  0.72646148  0.42888940  0.16666667  1
  Pd  Pd169  1  0.72646148  0.42888940  0.50000000  1
  Pd  Pd170  1  0.72646148  0.42888940  0.83333333  1
  Pd  Pd171  1  0.22646148  0.42888940  0.16666667  1
  Pd  Pd172  1  0.22646148  0.42888940  0.50000000  1
  Pd  Pd173  1  0.22646148  0.42888940  0.83333333  1
  Pd  Pd174  1  0.47646148  0.17888940  0.16666667  1
  Pd  Pd175  1  0.47646148  0.17888940  0.50000000  1
  Pd  Pd176  1  0.47646148  0.17888940  0.83333333  1
  Pd  Pd177  1  0.72646148  -0.07111060  0.16666667  1
  Pd  Pd178  1  0.72646148  -0.07111060  0.50000000  1
  Pd  Pd179  1  0.72646148  -0.07111060  0.83333333  1
  Pd  Pd180  1  -0.02353852  0.17888940  0.16666667  1
  Pd  Pd181  1  -0.02353852  0.17888940  0.50000000  1
  Pd  Pd182  1  -0.02353852  0.17888940  0.83333333  1
  Pd  Pd183  1  0.22646148  -0.07111060  0.16666667  1
  Pd  Pd184  1  0.22646148  -0.07111060  0.50000000  1
  Pd  Pd185  1  0.22646148  -0.07111060  0.83333333  1
  Pd  Pd186  1  0.47646148  -0.32111060  0.16666667  1
  Pd  Pd187  1  0.47646148  -0.32111060  0.50000000  1
  Pd  Pd188  1  0.47646148  -0.32111060  0.83333333  1
  Pd  Pd189  1  -0.02353852  -0.32111060  0.16666667  1
  Pd  Pd190  1  -0.02353852  -0.32111060  0.50000000  1
  Pd  Pd191  1  -0.02353852  -0.32111060  0.83333333  1
  O  O192  1  0.80150690  0.40162424  0.08585601  1
  O  O193  1  0.80150690  0.40162424  0.41918935  1
  O  O194  1  0.80150690  0.40162424  0.75252268  1
  O  O195  1  0.30150690  0.40162424  0.08585601  1
  O  O196  1  0.30150690  0.40162424  0.41918935  1
  O  O197  1  0.30150690  0.40162424  0.75252268  1
  O  O198  1  0.55150690  0.15162424  0.08585601  1
  O  O199  1  0.55150690  0.15162424  0.41918935  1
  O  O200  1  0.55150690  0.15162424  0.75252268  1
  O  O201  1  0.80150690  -0.09837576  0.08585601  1
  O  O202  1  0.80150690  -0.09837576  0.41918935  1
  O  O203  1  0.80150690  -0.09837576  0.75252268  1
  O  O204  1  0.05150690  0.15162424  0.08585601  1
  O  O205  1  0.05150690  0.15162424  0.41918935  1
  O  O206  1  0.05150690  0.15162424  0.75252268  1
  O  O207  1  0.30150690  -0.09837576  0.08585601  1
  O  O208  1  0.30150690  -0.09837576  0.41918935  1
  O  O209  1  0.30150690  -0.09837576  0.75252268  1
  O  O210  1  0.55150690  -0.34837576  0.08585601  1
  O  O211  1  0.55150690  -0.34837576  0.41918935  1
  O  O212  1  0.55150690  -0.34837576  0.75252268  1
  O  O213  1  0.05150690  -0.34837576  0.08585601  1
  O  O214  1  0.05150690  -0.34837576  0.41918935  1
  O  O215  1  0.05150690  -0.34837576  0.75252268  1
  O  O216  1  0.65162424  0.44849310  0.25252268  1
  O  O217  1  0.65162424  0.44849310  0.58585601  1
  O  O218  1  0.65162424  0.44849310  0.91918935  1
  O  O219  1  0.15162424  0.44849310  0.25252268  1
  O  O220  1  0.15162424  0.44849310  0.58585601  1
  O  O221  1  0.15162424  0.44849310  0.91918935  1
  O  O222  1  0.40162424  0.19849310  0.25252268  1
  O  O223  1  0.40162424  0.19849310  0.58585601  1
  O  O224  1  0.40162424  0.19849310  0.91918935  1
  O  O225  1  0.65162424  -0.05150690  0.25252268  1
  O  O226  1  0.65162424  -0.05150690  0.58585601  1
  O  O227  1  0.65162424  -0.05150690  0.91918935  1
  O  O228  1  -0.09837576  0.19849310  0.25252268  1
  O  O229  1  -0.09837576  0.19849310  0.58585601  1
  O  O230  1  -0.09837576  0.19849310  0.91918935  1
  O  O231  1  0.15162424  -0.05150690  0.25252268  1
  O  O232  1  0.15162424  -0.05150690  0.58585601  1
  O  O233  1  0.15162424  -0.05150690  0.91918935  1
  O  O234  1  0.40162424  -0.30150690  0.25252268  1
  O  O235  1  0.40162424  -0.30150690  0.58585601  1
  O  O236  1  0.40162424  -0.30150690  0.91918935  1
  O  O237  1  -0.09837576  -0.30150690  0.25252268  1
  O  O238  1  -0.09837576  -0.30150690  0.58585601  1
  O  O239  1  -0.09837576  -0.30150690  0.91918935  1
  O  O240  1  0.69849310  0.59837576  0.24747732  1
  O  O241  1  0.69849310  0.59837576  0.58081065  1
  O  O242  1  0.69849310  0.59837576  0.91414399  1
  O  O243  1  0.19849310  0.59837576  0.24747732  1
  O  O244  1  0.19849310  0.59837576  0.58081065  1
  O  O245  1  0.19849310  0.59837576  0.91414399  1
  O  O246  1  0.44849310  0.34837576  0.24747732  1
  O  O247  1  0.44849310  0.34837576  0.58081065  1
  O  O248  1  0.44849310  0.34837576  0.91414399  1
  O  O249  1  0.69849310  0.09837576  0.24747732  1
  O  O250  1  0.69849310  0.09837576  0.58081065  1
  O  O251  1  0.69849310  0.09837576  0.91414399  1
  O  O252  1  -0.05150690  0.34837576  0.24747732  1
  O  O253  1  -0.05150690  0.34837576  0.58081065  1
  O  O254  1  -0.05150690  0.34837576  0.91414399  1
  O  O255  1  0.19849310  0.09837576  0.24747732  1
  O  O256  1  0.19849310  0.09837576  0.58081065  1
  O  O257  1  0.19849310  0.09837576  0.91414399  1
  O  O258  1  0.44849310  -0.15162424  0.24747732  1
  O  O259  1  0.44849310  -0.15162424  0.58081065  1
  O  O260  1  0.44849310  -0.15162424  0.91414399  1
  O  O261  1  -0.05150690  -0.15162424  0.24747732  1
  O  O262  1  -0.05150690  -0.15162424  0.58081065  1
  O  O263  1  -0.05150690  -0.15162424  0.91414399  1
  O  O264  1  0.69849310  0.59837576  0.08585601  1
  O  O265  1  0.69849310  0.59837576  0.41918935  1
  O  O266  1  0.69849310  0.59837576  0.75252268  1
  O  O267  1  0.19849310  0.59837576  0.08585601  1
  O  O268  1  0.19849310  0.59837576  0.41918935  1
  O  O269  1  0.19849310  0.59837576  0.75252268  1
  O  O270  1  0.44849310  0.34837576  0.08585601  1
  O  O271  1  0.44849310  0.34837576  0.41918935  1
  O  O272  1  0.44849310  0.34837576  0.75252268  1
  O  O273  1  0.69849310  0.09837576  0.08585601  1
  O  O274  1  0.69849310  0.09837576  0.41918935  1
  O  O275  1  0.69849310  0.09837576  0.75252268  1
  O  O276  1  -0.05150690  0.34837576  0.08585601  1
  O  O277  1  -0.05150690  0.34837576  0.41918935  1
  O  O278  1  -0.05150690  0.34837576  0.75252268  1
  O  O279  1  0.19849310  0.09837576  0.08585601  1
  O  O280  1  0.19849310  0.09837576  0.41918935  1
  O  O281  1  0.19849310  0.09837576  0.75252268  1
  O  O282  1  0.44849310  -0.15162424  0.08585601  1
  O  O283  1  0.44849310  -0.15162424  0.41918935  1
  O  O284  1  0.44849310  -0.15162424  0.75252268  1
  O  O285  1  -0.05150690  -0.15162424  0.08585601  1
  O  O286  1  -0.05150690  -0.15162424  0.41918935  1
  O  O287  1  -0.05150690  -0.15162424  0.75252268  1
  O  O288  1  0.75000000  0.75000000  0.25000000  1
  O  O289  1  0.75000000  0.75000000  0.58333333  1
  O  O290  1  0.75000000  0.75000000  0.91666667  1
  O  O291  1  0.25000000  0.75000000  0.25000000  1
  O  O292  1  0.25000000  0.75000000  0.58333333  1
  O  O293  1  0.25000000  0.75000000  0.91666667  1
  O  O294  1  0.50000000  0.50000000  0.25000000  1
  O  O295  1  0.50000000  0.50000000  0.58333333  1
  O  O296  1  0.50000000  0.50000000  0.91666667  1
  O  O297  1  0.75000000  0.25000000  0.25000000  1
  O  O298  1  0.75000000  0.25000000  0.58333333  1
  O  O299  1  0.75000000  0.25000000  0.91666667  1
  O  O300  1  -0.00000000  0.50000000  0.25000000  1
  O  O301  1  -0.00000000  0.50000000  0.58333333  1
  O  O302  1  -0.00000000  0.50000000  0.91666667  1
  O  O303  1  0.25000000  0.25000000  0.25000000  1
  O  O304  1  0.25000000  0.25000000  0.58333333  1
  O  O305  1  0.25000000  0.25000000  0.91666667  1
  O  O306  1  0.50000000  -0.00000000  0.25000000  1
  O  O307  1  0.50000000  -0.00000000  0.58333333  1
  O  O308  1  0.50000000  -0.00000000  0.91666667  1
  O  O309  1  0.00000000  0.00000000  0.25000000  1
  O  O310  1  0.00000000  0.00000000  0.58333333  1
  O  O311  1  0.00000000  0.00000000  0.91666667  1
  O  O312  1  0.84837576  0.55150690  0.25252268  1
  O  O313  1  0.84837576  0.55150690  0.58585601  1
  O  O314  1  0.84837576  0.55150690  0.91918935  1
  O  O315  1  0.34837576  0.55150690  0.25252268  1
  O  O316  1  0.34837576  0.55150690  0.58585601  1
  O  O317  1  0.34837576  0.55150690  0.91918935  1
  O  O318  1  0.59837576  0.30150690  0.25252268  1
  O  O319  1  0.59837576  0.30150690  0.58585601  1
  O  O320  1  0.59837576  0.30150690  0.91918935  1
  O  O321  1  0.84837576  0.05150690  0.25252268  1
  O  O322  1  0.84837576  0.05150690  0.58585601  1
  O  O323  1  0.84837576  0.05150690  0.91918935  1
  O  O324  1  0.09837576  0.30150690  0.25252268  1
  O  O325  1  0.09837576  0.30150690  0.58585601  1
  O  O326  1  0.09837576  0.30150690  0.91918935  1
  O  O327  1  0.34837576  0.05150690  0.25252268  1
  O  O328  1  0.34837576  0.05150690  0.58585601  1
  O  O329  1  0.34837576  0.05150690  0.91918935  1
  O  O330  1  0.59837576  -0.19849310  0.25252268  1
  O  O331  1  0.59837576  -0.19849310  0.58585601  1
  O  O332  1  0.59837576  -0.19849310  0.91918935  1
  O  O333  1  0.09837576  -0.19849310  0.25252268  1
  O  O334  1  0.09837576  -0.19849310  0.58585601  1
  O  O335  1  0.09837576  -0.19849310  0.91918935  1
  O  O336  1  0.84837576  0.55150690  0.08081065  1
  O  O337  1  0.84837576  0.55150690  0.41414399  1
  O  O338  1  0.84837576  0.55150690  0.74747732  1
  O  O339  1  0.34837576  0.55150690  0.08081065  1
  O  O340  1  0.34837576  0.55150690  0.41414399  1
  O  O341  1  0.34837576  0.55150690  0.74747732  1
  O  O342  1  0.59837576  0.30150690  0.08081065  1
  O  O343  1  0.59837576  0.30150690  0.41414399  1
  O  O344  1  0.59837576  0.30150690  0.74747732  1
  O  O345  1  0.84837576  0.05150690  0.08081065  1
  O  O346  1  0.84837576  0.05150690  0.41414399  1
  O  O347  1  0.84837576  0.05150690  0.74747732  1
  O  O348  1  0.09837576  0.30150690  0.08081065  1
  O  O349  1  0.09837576  0.30150690  0.41414399  1
  O  O350  1  0.09837576  0.30150690  0.74747732  1
  O  O351  1  0.34837576  0.05150690  0.08081065  1
  O  O352  1  0.34837576  0.05150690  0.41414399  1
  O  O353  1  0.34837576  0.05150690  0.74747732  1
  O  O354  1  0.59837576  -0.19849310  0.08081065  1
  O  O355  1  0.59837576  -0.19849310  0.41414399  1
  O  O356  1  0.59837576  -0.19849310  0.74747732  1
  O  O357  1  0.09837576  -0.19849310  0.08081065  1
  O  O358  1  0.09837576  -0.19849310  0.41414399  1
  O  O359  1  0.09837576  -0.19849310  0.74747732  1
  O  O360  1  0.80150690  0.40162424  0.24747732  1
  O  O361  1  0.80150690  0.40162424  0.58081065  1
  O  O362  1  0.80150690  0.40162424  0.91414399  1
  O  O363  1  0.30150690  0.40162424  0.24747732  1
  O  O364  1  0.30150690  0.40162424  0.58081065  1
  O  O365  1  0.30150690  0.40162424  0.91414399  1
  O  O366  1  0.55150690  0.15162424  0.24747732  1
  O  O367  1  0.55150690  0.15162424  0.58081065  1
  O  O368  1  0.55150690  0.15162424  0.91414399  1
  O  O369  1  0.80150690  -0.09837576  0.24747732  1
  O  O370  1  0.80150690  -0.09837576  0.58081065  1
  O  O371  1  0.80150690  -0.09837576  0.91414399  1
  O  O372  1  0.05150690  0.15162424  0.24747732  1
  O  O373  1  0.05150690  0.15162424  0.58081065  1
  O  O374  1  0.05150690  0.15162424  0.91414399  1
  O  O375  1  0.30150690  -0.09837576  0.24747732  1
  O  O376  1  0.30150690  -0.09837576  0.58081065  1
  O  O377  1  0.30150690  -0.09837576  0.91414399  1
  O  O378  1  0.55150690  -0.34837576  0.24747732  1
  O  O379  1  0.55150690  -0.34837576  0.58081065  1
  O  O380  1  0.55150690  -0.34837576  0.91414399  1
  O  O381  1  0.05150690  -0.34837576  0.24747732  1
  O  O382  1  0.05150690  -0.34837576  0.58081065  1
  O  O383  1  0.05150690  -0.34837576  0.91414399  1
  O  O384  1  0.75000000  0.75000000  0.08333333  1
  O  O385  1  0.75000000  0.75000000  0.41666667  1
  O  O386  1  0.75000000  0.75000000  0.75000000  1
  O  O387  1  0.25000000  0.75000000  0.08333333  1
  O  O388  1  0.25000000  0.75000000  0.41666667  1
  O  O389  1  0.25000000  0.75000000  0.75000000  1
  O  O390  1  0.50000000  0.50000000  0.08333333  1
  O  O391  1  0.50000000  0.50000000  0.41666667  1
  O  O392  1  0.50000000  0.50000000  0.75000000  1
  O  O393  1  0.75000000  0.25000000  0.08333333  1
  O  O394  1  0.75000000  0.25000000  0.41666667  1
  O  O395  1  0.75000000  0.25000000  0.75000000  1
  O  O396  1  -0.00000000  0.50000000  0.08333333  1
  O  O397  1  -0.00000000  0.50000000  0.41666667  1
  O  O398  1  -0.00000000  0.50000000  0.75000000  1
  O  O399  1  0.25000000  0.25000000  0.08333333  1
  O  O400  1  0.25000000  0.25000000  0.41666667  1
  O  O401  1  0.25000000  0.25000000  0.75000000  1
  O  O402  1  0.50000000  -0.00000000  0.08333333  1
  O  O403  1  0.50000000  -0.00000000  0.41666667  1
  O  O404  1  0.50000000  -0.00000000  0.75000000  1
  O  O405  1  0.00000000  0.00000000  0.08333333  1
  O  O406  1  0.00000000  0.00000000  0.41666667  1
  O  O407  1  0.00000000  0.00000000  0.75000000  1
  O  O408  1  0.65162424  0.44849310  0.08081065  1
  O  O409  1  0.65162424  0.44849310  0.41414399  1
  O  O410  1  0.65162424  0.44849310  0.74747732  1
  O  O411  1  0.15162424  0.44849310  0.08081065  1
  O  O412  1  0.15162424  0.44849310  0.41414399  1
  O  O413  1  0.15162424  0.44849310  0.74747732  1
  O  O414  1  0.40162424  0.19849310  0.08081065  1
  O  O415  1  0.40162424  0.19849310  0.41414399  1
  O  O416  1  0.40162424  0.19849310  0.74747732  1
  O  O417  1  0.65162424  -0.05150690  0.08081065  1
  O  O418  1  0.65162424  -0.05150690  0.41414399  1
  O  O419  1  0.65162424  -0.05150690  0.74747732  1
  O  O420  1  -0.09837576  0.19849310  0.08081065  1
  O  O421  1  -0.09837576  0.19849310  0.41414399  1
  O  O422  1  -0.09837576  0.19849310  0.74747732  1
  O  O423  1  0.15162424  -0.05150690  0.08081065  1
  O  O424  1  0.15162424  -0.05150690  0.41414399  1
  O  O425  1  0.15162424  -0.05150690  0.74747732  1
  O  O426  1  0.40162424  -0.30150690  0.08081065  1
  O  O427  1  0.40162424  -0.30150690  0.41414399  1
  O  O428  1  0.40162424  -0.30150690  0.74747732  1
  O  O429  1  -0.09837576  -0.30150690  0.08081065  1
  O  O430  1  -0.09837576  -0.30150690  0.41414399  1
  O  O431  1  -0.09837576  -0.30150690  0.74747732  1
