# generated using pymatgen
data_Sn5O6
_symmetry_space_group_name_H-M   'P 1'
_cell_length_a   13.36339347
_cell_length_b   14.54754778
_cell_length_c   11.64616287
_cell_angle_alpha   90.00000000
_cell_angle_beta   92.69082477
_cell_angle_gamma   90.00000000
_symmetry_Int_Tables_number   1
_chemical_formula_structural   Sn5O6
_chemical_formula_sum   'Sn60 O72'
_cell_volume   2261.57134316
_cell_formula_units_Z   12
loop_
 _symmetry_equiv_pos_site_id
 _symmetry_equiv_pos_as_xyz
  1  'x, y, z'
loop_
 _atom_site_type_symbol
 _atom_site_label
 _atom_site_symmetry_multiplicity
 _atom_site_fract_x
 _atom_site_fract_y
 _atom_site_fract_z
 _atom_site_occupancy
  Sn  Sn0  1  0.89917360  0.00083859  0.40949972  1
  Sn  Sn1  1  0.89917360  0.00083859  0.90949972  1
  Sn  Sn2  1  0.89917360  0.33417193  0.40949972  1
  Sn  Sn3  1  0.89917360  0.33417193  0.90949972  1
  Sn  Sn4  1  0.89917360  0.66750526  0.40949972  1
  Sn  Sn5  1  0.89917360  0.66750526  0.90949972  1
  Sn  Sn6  1  0.69923016  0.33253683  0.17518650  1
  Sn  Sn7  1  0.69923016  0.33253683  0.67518650  1
  Sn  Sn8  1  0.69923016  0.66587017  0.17518650  1
  Sn  Sn9  1  0.69923016  0.66587017  0.67518650  1
  Sn  Sn10  1  0.69923016  0.99920350  0.17518650  1
  Sn  Sn11  1  0.69923016  0.99920350  0.67518650  1
  Sn  Sn12  1  0.89917360  0.16582807  0.15949972  1
  Sn  Sn13  1  0.89917360  0.16582807  0.65949972  1
  Sn  Sn14  1  0.89917360  0.49916141  0.15949972  1
  Sn  Sn15  1  0.89917360  0.49916141  0.65949972  1
  Sn  Sn16  1  0.89917360  0.83249474  0.15949972  1
  Sn  Sn17  1  0.89917360  0.83249474  0.65949972  1
  Sn  Sn18  1  0.10082640  0.16750526  0.34050028  1
  Sn  Sn19  1  0.10082640  0.16750526  0.84050028  1
  Sn  Sn20  1  0.10082640  0.50083859  0.34050028  1
  Sn  Sn21  1  0.10082640  0.50083859  0.84050028  1
  Sn  Sn22  1  0.10082640  0.83417193  0.34050028  1
  Sn  Sn23  1  0.10082640  0.83417193  0.84050028  1
  Sn  Sn24  1  0.30076984  0.16587017  0.07481350  1
  Sn  Sn25  1  0.30076984  0.16587017  0.57481350  1
  Sn  Sn26  1  0.30076984  0.49920350  0.07481350  1
  Sn  Sn27  1  0.30076984  0.49920350  0.57481350  1
  Sn  Sn28  1  0.30076984  0.83253683  0.07481350  1
  Sn  Sn29  1  0.30076984  0.83253683  0.57481350  1
  Sn  Sn30  1  0.10082640  0.33249474  0.09050028  1
  Sn  Sn31  1  0.10082640  0.33249474  0.59050028  1
  Sn  Sn32  1  0.10082640  0.66582807  0.09050028  1
  Sn  Sn33  1  0.10082640  0.66582807  0.59050028  1
  Sn  Sn34  1  0.10082640  0.99916141  0.09050028  1
  Sn  Sn35  1  0.10082640  0.99916141  0.59050028  1
  Sn  Sn36  1  0.30076984  0.00079650  0.32481350  1
  Sn  Sn37  1  0.30076984  0.00079650  0.82481350  1
  Sn  Sn38  1  0.30076984  0.33412983  0.32481350  1
  Sn  Sn39  1  0.30076984  0.33412983  0.82481350  1
  Sn  Sn40  1  0.30076984  0.66746317  0.32481350  1
  Sn  Sn41  1  0.30076984  0.66746317  0.82481350  1
  Sn  Sn42  1  0.50000000  0.16666667  0.25000000  1
  Sn  Sn43  1  0.50000000  0.16666667  0.75000000  1
  Sn  Sn44  1  0.50000000  0.50000000  0.25000000  1
  Sn  Sn45  1  0.50000000  0.50000000  0.75000000  1
  Sn  Sn46  1  0.50000000  0.83333333  0.25000000  1
  Sn  Sn47  1  0.50000000  0.83333333  0.75000000  1
  Sn  Sn48  1  0.69923016  0.16746317  0.42518650  1
  Sn  Sn49  1  0.69923016  0.16746317  0.92518650  1
  Sn  Sn50  1  0.69923016  0.50079650  0.42518650  1
  Sn  Sn51  1  0.69923016  0.50079650  0.92518650  1
  Sn  Sn52  1  0.69923016  0.83412983  0.42518650  1
  Sn  Sn53  1  0.69923016  0.83412983  0.92518650  1
  Sn  Sn54  1  0.50000000  0.00000000  0.00000000  1
  Sn  Sn55  1  0.50000000  0.00000000  0.50000000  1
  Sn  Sn56  1  0.50000000  0.33333333  0.00000000  1
  Sn  Sn57  1  0.50000000  0.33333333  0.50000000  1
  Sn  Sn58  1  0.50000000  0.66666667  0.00000000  1
  Sn  Sn59  1  0.50000000  0.66666667  0.50000000  1
  O  O60  1  0.64219383  0.05912545  0.01955208  1
  O  O61  1  0.64219383  0.05912545  0.51955208  1
  O  O62  1  0.64219383  0.39245878  0.01955208  1
  O  O63  1  0.64219383  0.39245878  0.51955208  1
  O  O64  1  0.64219383  0.72579212  0.01955208  1
  O  O65  1  0.64219383  0.72579212  0.51955208  1
  O  O66  1  0.35780617  0.27420788  0.48044792  1
  O  O67  1  0.35780617  0.27420788  0.98044792  1
  O  O68  1  0.35780617  0.60754122  0.48044792  1
  O  O69  1  0.35780617  0.60754122  0.98044792  1
  O  O70  1  0.35780617  0.94087455  0.48044792  1
  O  O71  1  0.35780617  0.94087455  0.98044792  1
  O  O72  1  0.35780617  0.22579212  0.23044792  1
  O  O73  1  0.35780617  0.22579212  0.73044792  1
  O  O74  1  0.35780617  0.55912545  0.23044792  1
  O  O75  1  0.35780617  0.55912545  0.73044792  1
  O  O76  1  0.35780617  0.89245878  0.23044792  1
  O  O77  1  0.35780617  0.89245878  0.73044792  1
  O  O78  1  0.44115627  0.06585060  0.35389479  1
  O  O79  1  0.44115627  0.06585060  0.85389479  1
  O  O80  1  0.44115627  0.39918393  0.35389479  1
  O  O81  1  0.44115627  0.39918393  0.85389479  1
  O  O82  1  0.44115627  0.73251727  0.35389479  1
  O  O83  1  0.44115627  0.73251727  0.85389479  1
  O  O84  1  0.55884373  0.26748273  0.14610521  1
  O  O85  1  0.55884373  0.26748273  0.64610521  1
  O  O86  1  0.55884373  0.60081607  0.14610521  1
  O  O87  1  0.55884373  0.60081607  0.64610521  1
  O  O88  1  0.55884373  0.93414940  0.14610521  1
  O  O89  1  0.55884373  0.93414940  0.64610521  1
  O  O90  1  0.04532086  0.10739322  0.18521890  1
  O  O91  1  0.04532086  0.10739322  0.68521890  1
  O  O92  1  0.04532086  0.44072655  0.18521890  1
  O  O93  1  0.04532086  0.44072655  0.68521890  1
  O  O94  1  0.04532086  0.77405989  0.18521890  1
  O  O95  1  0.04532086  0.77405989  0.68521890  1
  O  O96  1  0.04532086  0.05927345  0.43521890  1
  O  O97  1  0.04532086  0.05927345  0.93521890  1
  O  O98  1  0.04532086  0.39260678  0.43521890  1
  O  O99  1  0.04532086  0.39260678  0.93521890  1
  O  O100  1  0.04532086  0.72594011  0.43521890  1
  O  O101  1  0.04532086  0.72594011  0.93521890  1
  O  O102  1  0.64219383  0.10754122  0.26955208  1
  O  O103  1  0.64219383  0.10754122  0.76955208  1
  O  O104  1  0.64219383  0.44087455  0.26955208  1
  O  O105  1  0.64219383  0.44087455  0.76955208  1
  O  O106  1  0.64219383  0.77420788  0.26955208  1
  O  O107  1  0.64219383  0.77420788  0.76955208  1
  O  O108  1  0.95467914  0.22594011  0.31478110  1
  O  O109  1  0.95467914  0.22594011  0.81478110  1
  O  O110  1  0.95467914  0.55927345  0.31478110  1
  O  O111  1  0.95467914  0.55927345  0.81478110  1
  O  O112  1  0.95467914  0.89260678  0.31478110  1
  O  O113  1  0.95467914  0.89260678  0.81478110  1
  O  O114  1  0.95467914  0.27405989  0.06478110  1
  O  O115  1  0.95467914  0.27405989  0.56478110  1
  O  O116  1  0.95467914  0.60739322  0.06478110  1
  O  O117  1  0.95467914  0.60739322  0.56478110  1
  O  O118  1  0.95467914  0.94072655  0.06478110  1
  O  O119  1  0.95467914  0.94072655  0.56478110  1
  O  O120  1  0.55884373  0.23251727  0.39610521  1
  O  O121  1  0.55884373  0.23251727  0.89610521  1
  O  O122  1  0.55884373  0.56585060  0.39610521  1
  O  O123  1  0.55884373  0.56585060  0.89610521  1
  O  O124  1  0.55884373  0.89918393  0.39610521  1
  O  O125  1  0.55884373  0.89918393  0.89610521  1
  O  O126  1  0.44115627  0.10081607  0.10389479  1
  O  O127  1  0.44115627  0.10081607  0.60389479  1
  O  O128  1  0.44115627  0.43414940  0.10389479  1
  O  O129  1  0.44115627  0.43414940  0.60389479  1
  O  O130  1  0.44115627  0.76748273  0.10389479  1
  O  O131  1  0.44115627  0.76748273  0.60389479  1
