# generated using pymatgen
data_Na2BiO3
_symmetry_space_group_name_H-M   'P 1'
_cell_length_a   11.75725753
_cell_length_b   10.16399322
_cell_length_c   11.10037657
_cell_angle_alpha   90.00000000
_cell_angle_beta   99.62739790
_cell_angle_gamma   90.00000000
_symmetry_Int_Tables_number   1
_chemical_formula_structural   Na2BiO3
_chemical_formula_sum   'Na32 Bi16 O48'
_cell_volume   1307.82038786
_cell_formula_units_Z   16
loop_
 _symmetry_equiv_pos_site_id
 _symmetry_equiv_pos_as_xyz
  1  'x, y, z'
loop_
 _atom_site_type_symbol
 _atom_site_label
 _atom_site_symmetry_multiplicity
 _atom_site_fract_x
 _atom_site_fract_y
 _atom_site_fract_z
 _atom_site_occupancy
  Na  Na0  1  0.38164995  0.08568214  0.99785349  1
  Na  Na1  1  0.88164995  0.08568214  0.99785349  1
  Na  Na2  1  0.63164995  0.58568214  0.99785349  1
  Na  Na3  1  1.13164995  0.58568214  0.99785349  1
  Na  Na4  1  0.38164995  -0.08568214  0.49785349  1
  Na  Na5  1  0.88164995  -0.08568214  0.49785349  1
  Na  Na6  1  0.63164995  0.41431786  0.49785349  1
  Na  Na7  1  1.13164995  0.41431786  0.49785349  1
  Na  Na8  1  0.12500000  -0.25000000  0.50000000  1
  Na  Na9  1  0.62500000  -0.25000000  0.50000000  1
  Na  Na10  1  0.37500000  0.25000000  0.50000000  1
  Na  Na11  1  0.87500000  0.25000000  0.50000000  1
  Na  Na12  1  0.25000000  0.41475158  0.25000000  1
  Na  Na13  1  0.75000000  0.41475158  0.25000000  1
  Na  Na14  1  0.50000000  0.91475158  0.25000000  1
  Na  Na15  1  1.00000000  0.91475158  0.25000000  1
  Na  Na16  1  0.25000000  -0.41475158  0.75000000  1
  Na  Na17  1  0.75000000  -0.41475158  0.75000000  1
  Na  Na18  1  0.50000000  0.08524842  0.75000000  1
  Na  Na19  1  1.00000000  0.08524842  0.75000000  1
  Na  Na20  1  0.11835005  0.08568214  0.50214651  1
  Na  Na21  1  0.61835005  0.08568214  0.50214651  1
  Na  Na22  1  0.36835005  0.58568214  0.50214651  1
  Na  Na23  1  0.86835005  0.58568214  0.50214651  1
  Na  Na24  1  0.12500000  0.25000000  0.00000000  1
  Na  Na25  1  0.62500000  0.25000000  0.00000000  1
  Na  Na26  1  0.37500000  0.75000000  0.00000000  1
  Na  Na27  1  0.87500000  0.75000000  0.00000000  1
  Na  Na28  1  0.11835005  -0.08568214  0.00214651  1
  Na  Na29  1  0.61835005  -0.08568214  0.00214651  1
  Na  Na30  1  0.36835005  0.41431786  0.00214651  1
  Na  Na31  1  0.86835005  0.41431786  0.00214651  1
  Bi  Bi32  1  0.25000000  0.08093476  0.25000000  1
  Bi  Bi33  1  0.75000000  0.08093476  0.25000000  1
  Bi  Bi34  1  0.50000000  0.58093476  0.25000000  1
  Bi  Bi35  1  1.00000000  0.58093476  0.25000000  1
  Bi  Bi36  1  0.25000000  -0.25185324  0.25000000  1
  Bi  Bi37  1  0.75000000  -0.25185324  0.25000000  1
  Bi  Bi38  1  0.50000000  0.24814676  0.25000000  1
  Bi  Bi39  1  1.00000000  0.24814676  0.25000000  1
  Bi  Bi40  1  0.25000000  -0.08093476  0.75000000  1
  Bi  Bi41  1  0.75000000  -0.08093476  0.75000000  1
  Bi  Bi42  1  0.50000000  0.41906524  0.75000000  1
  Bi  Bi43  1  1.00000000  0.41906524  0.75000000  1
  Bi  Bi44  1  0.25000000  0.25185324  0.75000000  1
  Bi  Bi45  1  0.75000000  0.25185324  0.75000000  1
  Bi  Bi46  1  0.50000000  0.75185324  0.75000000  1
  Bi  Bi47  1  1.00000000  0.75185324  0.75000000  1
  O  O48  1  0.43986344  0.09909604  0.36383428  1
  O  O49  1  0.93986344  0.09909604  0.36383428  1
  O  O50  1  0.68986344  0.59909604  0.36383428  1
  O  O51  1  1.18986344  0.59909604  0.36383428  1
  O  O52  1  0.33175017  0.24379678  0.13990750  1
  O  O53  1  0.83175017  0.24379678  0.13990750  1
  O  O54  1  0.58175017  0.74379678  0.13990750  1
  O  O55  1  1.08175017  0.74379678  0.13990750  1
  O  O56  1  0.43986344  -0.09909604  0.86383428  1
  O  O57  1  0.93986344  -0.09909604  0.86383428  1
  O  O58  1  0.68986344  0.40090396  0.86383428  1
  O  O59  1  1.18986344  0.40090396  0.86383428  1
  O  O60  1  0.30212549  -0.09982766  0.13497642  1
  O  O61  1  0.80212549  -0.09982766  0.13497642  1
  O  O62  1  0.55212549  0.40017234  0.13497642  1
  O  O63  1  1.05212549  0.40017234  0.13497642  1
  O  O64  1  0.33175017  -0.24379678  0.63990750  1
  O  O65  1  0.83175017  -0.24379678  0.63990750  1
  O  O66  1  0.58175017  0.25620322  0.63990750  1
  O  O67  1  1.08175017  0.25620322  0.63990750  1
  O  O68  1  0.30212549  0.09982766  0.63497642  1
  O  O69  1  0.80212549  0.09982766  0.63497642  1
  O  O70  1  0.55212549  0.59982766  0.63497642  1
  O  O71  1  1.05212549  0.59982766  0.63497642  1
  O  O72  1  0.19787451  -0.09982766  0.36502358  1
  O  O73  1  0.69787451  -0.09982766  0.36502358  1
  O  O74  1  0.44787451  0.40017234  0.36502358  1
  O  O75  1  0.94787451  0.40017234  0.36502358  1
  O  O76  1  0.16824983  0.24379678  0.36009250  1
  O  O77  1  0.66824983  0.24379678  0.36009250  1
  O  O78  1  0.41824983  0.74379678  0.36009250  1
  O  O79  1  0.91824983  0.74379678  0.36009250  1
  O  O80  1  0.19787451  0.09982766  0.86502358  1
  O  O81  1  0.69787451  0.09982766  0.86502358  1
  O  O82  1  0.44787451  0.59982766  0.86502358  1
  O  O83  1  0.94787451  0.59982766  0.86502358  1
  O  O84  1  0.06013656  0.09909604  0.13616572  1
  O  O85  1  0.56013656  0.09909604  0.13616572  1
  O  O86  1  0.31013656  0.59909604  0.13616572  1
  O  O87  1  0.81013656  0.59909604  0.13616572  1
  O  O88  1  0.16824983  -0.24379678  0.86009250  1
  O  O89  1  0.66824983  -0.24379678  0.86009250  1
  O  O90  1  0.41824983  0.25620322  0.86009250  1
  O  O91  1  0.91824983  0.25620322  0.86009250  1
  O  O92  1  0.06013656  -0.09909604  0.63616572  1
  O  O93  1  0.56013656  -0.09909604  0.63616572  1
  O  O94  1  0.31013656  0.40090396  0.63616572  1
  O  O95  1  0.81013656  0.40090396  0.63616572  1
