# generated using pymatgen
data_BaNaBO3
_symmetry_space_group_name_H-M   'P 1'
_cell_length_a   19.08512351
_cell_length_b   16.63029477
_cell_length_c   18.33747394
_cell_angle_alpha   90.00000000
_cell_angle_beta   99.06384839
_cell_angle_gamma   90.00000000
_symmetry_Int_Tables_number   1
_chemical_formula_structural   BaNaBO3
_chemical_formula_sum   'Ba72 Na72 B72 O216'
_cell_volume   5747.47949290
_cell_formula_units_Z   72
loop_
 _symmetry_equiv_pos_site_id
 _symmetry_equiv_pos_as_xyz
  1  'x, y, z'
loop_
 _atom_site_type_symbol
 _atom_site_label
 _atom_site_symmetry_multiplicity
 _atom_site_fract_x
 _atom_site_fract_y
 _atom_site_fract_z
 _atom_site_occupancy
  Ba  Ba0  1  0.41688759  0.00000000  0.25255046  1
  Ba  Ba1  1  0.41688759  0.00000000  0.58588380  1
  Ba  Ba2  1  0.41688759  0.00000000  0.91921713  1
  Ba  Ba3  1  0.41688759  0.33333333  0.25255046  1
  Ba  Ba4  1  0.41688759  0.33333333  0.58588380  1
  Ba  Ba5  1  0.41688759  0.33333333  0.91921713  1
  Ba  Ba6  1  0.41688759  0.66666667  0.25255046  1
  Ba  Ba7  1  0.41688759  0.66666667  0.58588380  1
  Ba  Ba8  1  0.41688759  0.66666667  0.91921713  1
  Ba  Ba9  1  0.91688759  0.00000000  0.25255046  1
  Ba  Ba10  1  0.91688759  0.00000000  0.58588380  1
  Ba  Ba11  1  0.91688759  0.00000000  0.91921713  1
  Ba  Ba12  1  0.91688759  0.33333333  0.25255046  1
  Ba  Ba13  1  0.91688759  0.33333333  0.58588380  1
  Ba  Ba14  1  0.91688759  0.33333333  0.91921713  1
  Ba  Ba15  1  0.91688759  0.66666667  0.25255046  1
  Ba  Ba16  1  0.91688759  0.66666667  0.58588380  1
  Ba  Ba17  1  0.91688759  0.66666667  0.91921713  1
  Ba  Ba18  1  0.66688759  0.16666667  0.25255046  1
  Ba  Ba19  1  0.66688759  0.16666667  0.58588380  1
  Ba  Ba20  1  0.66688759  0.16666667  0.91921713  1
  Ba  Ba21  1  0.66688759  0.50000000  0.25255046  1
  Ba  Ba22  1  0.66688759  0.50000000  0.58588380  1
  Ba  Ba23  1  0.66688759  0.50000000  0.91921713  1
  Ba  Ba24  1  0.66688759  0.83333333  0.25255046  1
  Ba  Ba25  1  0.66688759  0.83333333  0.58588380  1
  Ba  Ba26  1  0.66688759  0.83333333  0.91921713  1
  Ba  Ba27  1  1.16688759  0.16666667  0.25255046  1
  Ba  Ba28  1  1.16688759  0.16666667  0.58588380  1
  Ba  Ba29  1  1.16688759  0.16666667  0.91921713  1
  Ba  Ba30  1  1.16688759  0.50000000  0.25255046  1
  Ba  Ba31  1  1.16688759  0.50000000  0.58588380  1
  Ba  Ba32  1  1.16688759  0.50000000  0.91921713  1
  Ba  Ba33  1  1.16688759  0.83333333  0.25255046  1
  Ba  Ba34  1  1.16688759  0.83333333  0.58588380  1
  Ba  Ba35  1  1.16688759  0.83333333  0.91921713  1
  Ba  Ba36  1  0.08311241  0.00000000  0.08078287  1
  Ba  Ba37  1  0.08311241  0.00000000  0.41411620  1
  Ba  Ba38  1  0.08311241  0.00000000  0.74744954  1
  Ba  Ba39  1  0.08311241  0.33333333  0.08078287  1
  Ba  Ba40  1  0.08311241  0.33333333  0.41411620  1
  Ba  Ba41  1  0.08311241  0.33333333  0.74744954  1
  Ba  Ba42  1  0.08311241  0.66666667  0.08078287  1
  Ba  Ba43  1  0.08311241  0.66666667  0.41411620  1
  Ba  Ba44  1  0.08311241  0.66666667  0.74744954  1
  Ba  Ba45  1  0.58311241  0.00000000  0.08078287  1
  Ba  Ba46  1  0.58311241  0.00000000  0.41411620  1
  Ba  Ba47  1  0.58311241  0.00000000  0.74744954  1
  Ba  Ba48  1  0.58311241  0.33333333  0.08078287  1
  Ba  Ba49  1  0.58311241  0.33333333  0.41411620  1
  Ba  Ba50  1  0.58311241  0.33333333  0.74744954  1
  Ba  Ba51  1  0.58311241  0.66666667  0.08078287  1
  Ba  Ba52  1  0.58311241  0.66666667  0.41411620  1
  Ba  Ba53  1  0.58311241  0.66666667  0.74744954  1
  Ba  Ba54  1  0.33311241  0.16666667  0.08078287  1
  Ba  Ba55  1  0.33311241  0.16666667  0.41411620  1
  Ba  Ba56  1  0.33311241  0.16666667  0.74744954  1
  Ba  Ba57  1  0.33311241  0.50000000  0.08078287  1
  Ba  Ba58  1  0.33311241  0.50000000  0.41411620  1
  Ba  Ba59  1  0.33311241  0.50000000  0.74744954  1
  Ba  Ba60  1  0.33311241  0.83333333  0.08078287  1
  Ba  Ba61  1  0.33311241  0.83333333  0.41411620  1
  Ba  Ba62  1  0.33311241  0.83333333  0.74744954  1
  Ba  Ba63  1  0.83311241  0.16666667  0.08078287  1
  Ba  Ba64  1  0.83311241  0.16666667  0.41411620  1
  Ba  Ba65  1  0.83311241  0.16666667  0.74744954  1
  Ba  Ba66  1  0.83311241  0.50000000  0.08078287  1
  Ba  Ba67  1  0.83311241  0.50000000  0.41411620  1
  Ba  Ba68  1  0.83311241  0.50000000  0.74744954  1
  Ba  Ba69  1  0.83311241  0.83333333  0.08078287  1
  Ba  Ba70  1  0.83311241  0.83333333  0.41411620  1
  Ba  Ba71  1  0.83311241  0.83333333  0.74744954  1
  Na  Na72  1  0.25000000  0.00000000  0.16666667  1
  Na  Na73  1  0.25000000  0.00000000  0.50000000  1
  Na  Na74  1  0.25000000  0.00000000  0.83333333  1
  Na  Na75  1  0.25000000  0.33333333  0.16666667  1
  Na  Na76  1  0.25000000  0.33333333  0.50000000  1
  Na  Na77  1  0.25000000  0.33333333  0.83333333  1
  Na  Na78  1  0.25000000  0.66666667  0.16666667  1
  Na  Na79  1  0.25000000  0.66666667  0.50000000  1
  Na  Na80  1  0.25000000  0.66666667  0.83333333  1
  Na  Na81  1  0.75000000  0.00000000  0.16666667  1
  Na  Na82  1  0.75000000  0.00000000  0.50000000  1
  Na  Na83  1  0.75000000  0.00000000  0.83333333  1
  Na  Na84  1  0.75000000  0.33333333  0.16666667  1
  Na  Na85  1  0.75000000  0.33333333  0.50000000  1
  Na  Na86  1  0.75000000  0.33333333  0.83333333  1
  Na  Na87  1  0.75000000  0.66666667  0.16666667  1
  Na  Na88  1  0.75000000  0.66666667  0.50000000  1
  Na  Na89  1  0.75000000  0.66666667  0.83333333  1
  Na  Na90  1  0.50000000  0.16666667  0.16666667  1
  Na  Na91  1  0.50000000  0.16666667  0.50000000  1
  Na  Na92  1  0.50000000  0.16666667  0.83333333  1
  Na  Na93  1  0.50000000  0.50000000  0.16666667  1
  Na  Na94  1  0.50000000  0.50000000  0.50000000  1
  Na  Na95  1  0.50000000  0.50000000  0.83333333  1
  Na  Na96  1  0.50000000  0.83333333  0.16666667  1
  Na  Na97  1  0.50000000  0.83333333  0.50000000  1
  Na  Na98  1  0.50000000  0.83333333  0.83333333  1
  Na  Na99  1  1.00000000  0.16666667  0.16666667  1
  Na  Na100  1  1.00000000  0.16666667  0.50000000  1
  Na  Na101  1  1.00000000  0.16666667  0.83333333  1
  Na  Na102  1  1.00000000  0.50000000  0.16666667  1
  Na  Na103  1  1.00000000  0.50000000  0.50000000  1
  Na  Na104  1  1.00000000  0.50000000  0.83333333  1
  Na  Na105  1  1.00000000  0.83333333  0.16666667  1
  Na  Na106  1  1.00000000  0.83333333  0.50000000  1
  Na  Na107  1  1.00000000  0.83333333  0.83333333  1
  Na  Na108  1  0.25000000  0.00000000  0.00000000  1
  Na  Na109  1  0.25000000  0.00000000  0.33333333  1
  Na  Na110  1  0.25000000  0.00000000  0.66666667  1
  Na  Na111  1  0.25000000  0.33333333  0.00000000  1
  Na  Na112  1  0.25000000  0.33333333  0.33333333  1
  Na  Na113  1  0.25000000  0.33333333  0.66666667  1
  Na  Na114  1  0.25000000  0.66666667  0.00000000  1
  Na  Na115  1  0.25000000  0.66666667  0.33333333  1
  Na  Na116  1  0.25000000  0.66666667  0.66666667  1
  Na  Na117  1  0.75000000  0.00000000  0.00000000  1
  Na  Na118  1  0.75000000  0.00000000  0.33333333  1
  Na  Na119  1  0.75000000  0.00000000  0.66666667  1
  Na  Na120  1  0.75000000  0.33333333  0.00000000  1
  Na  Na121  1  0.75000000  0.33333333  0.33333333  1
  Na  Na122  1  0.75000000  0.33333333  0.66666667  1
  Na  Na123  1  0.75000000  0.66666667  0.00000000  1
  Na  Na124  1  0.75000000  0.66666667  0.33333333  1
  Na  Na125  1  0.75000000  0.66666667  0.66666667  1
  Na  Na126  1  0.50000000  0.16666667  0.00000000  1
  Na  Na127  1  0.50000000  0.16666667  0.33333333  1
  Na  Na128  1  0.50000000  0.16666667  0.66666667  1
  Na  Na129  1  0.50000000  0.50000000  0.00000000  1
  Na  Na130  1  0.50000000  0.50000000  0.33333333  1
  Na  Na131  1  0.50000000  0.50000000  0.66666667  1
  Na  Na132  1  0.50000000  0.83333333  0.00000000  1
  Na  Na133  1  0.50000000  0.83333333  0.33333333  1
  Na  Na134  1  0.50000000  0.83333333  0.66666667  1
  Na  Na135  1  1.00000000  0.16666667  0.00000000  1
  Na  Na136  1  1.00000000  0.16666667  0.33333333  1
  Na  Na137  1  1.00000000  0.16666667  0.66666667  1
  Na  Na138  1  1.00000000  0.50000000  0.00000000  1
  Na  Na139  1  1.00000000  0.50000000  0.33333333  1
  Na  Na140  1  1.00000000  0.50000000  0.66666667  1
  Na  Na141  1  1.00000000  0.83333333  0.00000000  1
  Na  Na142  1  1.00000000  0.83333333  0.33333333  1
  Na  Na143  1  1.00000000  0.83333333  0.66666667  1
  B  B144  1  0.41598068  0.00000000  0.08276702  1
  B  B145  1  0.41598068  0.00000000  0.41610035  1
  B  B146  1  0.41598068  0.00000000  0.74943369  1
  B  B147  1  0.41598068  0.33333333  0.08276702  1
  B  B148  1  0.41598068  0.33333333  0.41610035  1
  B  B149  1  0.41598068  0.33333333  0.74943369  1
  B  B150  1  0.41598068  0.66666667  0.08276702  1
  B  B151  1  0.41598068  0.66666667  0.41610035  1
  B  B152  1  0.41598068  0.66666667  0.74943369  1
  B  B153  1  0.91598068  0.00000000  0.08276702  1
  B  B154  1  0.91598068  0.00000000  0.41610035  1
  B  B155  1  0.91598068  0.00000000  0.74943369  1
  B  B156  1  0.91598068  0.33333333  0.08276702  1
  B  B157  1  0.91598068  0.33333333  0.41610035  1
  B  B158  1  0.91598068  0.33333333  0.74943369  1
  B  B159  1  0.91598068  0.66666667  0.08276702  1
  B  B160  1  0.91598068  0.66666667  0.41610035  1
  B  B161  1  0.91598068  0.66666667  0.74943369  1
  B  B162  1  0.66598068  0.16666667  0.08276702  1
  B  B163  1  0.66598068  0.16666667  0.41610035  1
  B  B164  1  0.66598068  0.16666667  0.74943369  1
  B  B165  1  0.66598068  0.50000000  0.08276702  1
  B  B166  1  0.66598068  0.50000000  0.41610035  1
  B  B167  1  0.66598068  0.50000000  0.74943369  1
  B  B168  1  0.66598068  0.83333333  0.08276702  1
  B  B169  1  0.66598068  0.83333333  0.41610035  1
  B  B170  1  0.66598068  0.83333333  0.74943369  1
  B  B171  1  1.16598068  0.16666667  0.08276702  1
  B  B172  1  1.16598068  0.16666667  0.41610035  1
  B  B173  1  1.16598068  0.16666667  0.74943369  1
  B  B174  1  1.16598068  0.50000000  0.08276702  1
  B  B175  1  1.16598068  0.50000000  0.41610035  1
  B  B176  1  1.16598068  0.50000000  0.74943369  1
  B  B177  1  1.16598068  0.83333333  0.08276702  1
  B  B178  1  1.16598068  0.83333333  0.41610035  1
  B  B179  1  1.16598068  0.83333333  0.74943369  1
  B  B180  1  0.08401932  0.00000000  0.25056631  1
  B  B181  1  0.08401932  0.00000000  0.58389965  1
  B  B182  1  0.08401932  0.00000000  0.91723298  1
  B  B183  1  0.08401932  0.33333333  0.25056631  1
  B  B184  1  0.08401932  0.33333333  0.58389965  1
  B  B185  1  0.08401932  0.33333333  0.91723298  1
  B  B186  1  0.08401932  0.66666667  0.25056631  1
  B  B187  1  0.08401932  0.66666667  0.58389965  1
  B  B188  1  0.08401932  0.66666667  0.91723298  1
  B  B189  1  0.58401932  0.00000000  0.25056631  1
  B  B190  1  0.58401932  0.00000000  0.58389965  1
  B  B191  1  0.58401932  0.00000000  0.91723298  1
  B  B192  1  0.58401932  0.33333333  0.25056631  1
  B  B193  1  0.58401932  0.33333333  0.58389965  1
  B  B194  1  0.58401932  0.33333333  0.91723298  1
  B  B195  1  0.58401932  0.66666667  0.25056631  1
  B  B196  1  0.58401932  0.66666667  0.58389965  1
  B  B197  1  0.58401932  0.66666667  0.91723298  1
  B  B198  1  0.33401932  0.16666667  0.25056631  1
  B  B199  1  0.33401932  0.16666667  0.58389965  1
  B  B200  1  0.33401932  0.16666667  0.91723298  1
  B  B201  1  0.33401932  0.50000000  0.25056631  1
  B  B202  1  0.33401932  0.50000000  0.58389965  1
  B  B203  1  0.33401932  0.50000000  0.91723298  1
  B  B204  1  0.33401932  0.83333333  0.25056631  1
  B  B205  1  0.33401932  0.83333333  0.58389965  1
  B  B206  1  0.33401932  0.83333333  0.91723298  1
  B  B207  1  0.83401932  0.16666667  0.25056631  1
  B  B208  1  0.83401932  0.16666667  0.58389965  1
  B  B209  1  0.83401932  0.16666667  0.91723298  1
  B  B210  1  0.83401932  0.50000000  0.25056631  1
  B  B211  1  0.83401932  0.50000000  0.58389965  1
  B  B212  1  0.83401932  0.50000000  0.91723298  1
  B  B213  1  0.83401932  0.83333333  0.25056631  1
  B  B214  1  0.83401932  0.83333333  0.58389965  1
  B  B215  1  0.83401932  0.83333333  0.91723298  1
  O  O216  1  0.30099436  -0.09467437  0.26357212  1
  O  O217  1  0.30099436  -0.09467437  0.59690546  1
  O  O218  1  0.30099436  -0.09467437  0.93023879  1
  O  O219  1  0.30099436  0.23865897  0.26357212  1
  O  O220  1  0.30099436  0.23865897  0.59690546  1
  O  O221  1  0.30099436  0.23865897  0.93023879  1
  O  O222  1  0.30099436  0.57199230  0.26357212  1
  O  O223  1  0.30099436  0.57199230  0.59690546  1
  O  O224  1  0.30099436  0.57199230  0.93023879  1
  O  O225  1  0.80099436  -0.09467437  0.26357212  1
  O  O226  1  0.80099436  -0.09467437  0.59690546  1
  O  O227  1  0.80099436  -0.09467437  0.93023879  1
  O  O228  1  0.80099436  0.23865897  0.26357212  1
  O  O229  1  0.80099436  0.23865897  0.59690546  1
  O  O230  1  0.80099436  0.23865897  0.93023879  1
  O  O231  1  0.80099436  0.57199230  0.26357212  1
  O  O232  1  0.80099436  0.57199230  0.59690546  1
  O  O233  1  0.80099436  0.57199230  0.93023879  1
  O  O234  1  0.55099436  0.07199230  0.26357212  1
  O  O235  1  0.55099436  0.07199230  0.59690546  1
  O  O236  1  0.55099436  0.07199230  0.93023879  1
  O  O237  1  0.55099436  0.40532563  0.26357212  1
  O  O238  1  0.55099436  0.40532563  0.59690546  1
  O  O239  1  0.55099436  0.40532563  0.93023879  1
  O  O240  1  0.55099436  0.73865897  0.26357212  1
  O  O241  1  0.55099436  0.73865897  0.59690546  1
  O  O242  1  0.55099436  0.73865897  0.93023879  1
  O  O243  1  1.05099436  0.07199230  0.26357212  1
  O  O244  1  1.05099436  0.07199230  0.59690546  1
  O  O245  1  1.05099436  0.07199230  0.93023879  1
  O  O246  1  1.05099436  0.40532563  0.26357212  1
  O  O247  1  1.05099436  0.40532563  0.59690546  1
  O  O248  1  1.05099436  0.40532563  0.93023879  1
  O  O249  1  1.05099436  0.73865897  0.26357212  1
  O  O250  1  1.05099436  0.73865897  0.59690546  1
  O  O251  1  1.05099436  0.73865897  0.93023879  1
  O  O252  1  0.19900564  -0.09467437  0.06976121  1
  O  O253  1  0.19900564  -0.09467437  0.40309454  1
  O  O254  1  0.19900564  -0.09467437  0.73642788  1
  O  O255  1  0.19900564  0.23865897  0.06976121  1
  O  O256  1  0.19900564  0.23865897  0.40309454  1
  O  O257  1  0.19900564  0.23865897  0.73642788  1
  O  O258  1  0.19900564  0.57199230  0.06976121  1
  O  O259  1  0.19900564  0.57199230  0.40309454  1
  O  O260  1  0.19900564  0.57199230  0.73642788  1
  O  O261  1  0.69900564  -0.09467437  0.06976121  1
  O  O262  1  0.69900564  -0.09467437  0.40309454  1
  O  O263  1  0.69900564  -0.09467437  0.73642788  1
  O  O264  1  0.69900564  0.23865897  0.06976121  1
  O  O265  1  0.69900564  0.23865897  0.40309454  1
  O  O266  1  0.69900564  0.23865897  0.73642788  1
  O  O267  1  0.69900564  0.57199230  0.06976121  1
  O  O268  1  0.69900564  0.57199230  0.40309454  1
  O  O269  1  0.69900564  0.57199230  0.73642788  1
  O  O270  1  0.44900564  0.07199230  0.06976121  1
  O  O271  1  0.44900564  0.07199230  0.40309454  1
  O  O272  1  0.44900564  0.07199230  0.73642788  1
  O  O273  1  0.44900564  0.40532563  0.06976121  1
  O  O274  1  0.44900564  0.40532563  0.40309454  1
  O  O275  1  0.44900564  0.40532563  0.73642788  1
  O  O276  1  0.44900564  0.73865897  0.06976121  1
  O  O277  1  0.44900564  0.73865897  0.40309454  1
  O  O278  1  0.44900564  0.73865897  0.73642788  1
  O  O279  1  0.94900564  0.07199230  0.06976121  1
  O  O280  1  0.94900564  0.07199230  0.40309454  1
  O  O281  1  0.94900564  0.07199230  0.73642788  1
  O  O282  1  0.94900564  0.40532563  0.06976121  1
  O  O283  1  0.94900564  0.40532563  0.40309454  1
  O  O284  1  0.94900564  0.40532563  0.73642788  1
  O  O285  1  0.94900564  0.73865897  0.06976121  1
  O  O286  1  0.94900564  0.73865897  0.40309454  1
  O  O287  1  0.94900564  0.73865897  0.73642788  1
  O  O288  1  0.19900564  0.09467437  0.06976121  1
  O  O289  1  0.19900564  0.09467437  0.40309454  1
  O  O290  1  0.19900564  0.09467437  0.73642788  1
  O  O291  1  0.19900564  0.42800770  0.06976121  1
  O  O292  1  0.19900564  0.42800770  0.40309454  1
  O  O293  1  0.19900564  0.42800770  0.73642788  1
  O  O294  1  0.19900564  0.76134103  0.06976121  1
  O  O295  1  0.19900564  0.76134103  0.40309454  1
  O  O296  1  0.19900564  0.76134103  0.73642788  1
  O  O297  1  0.69900564  0.09467437  0.06976121  1
  O  O298  1  0.69900564  0.09467437  0.40309454  1
  O  O299  1  0.69900564  0.09467437  0.73642788  1
  O  O300  1  0.69900564  0.42800770  0.06976121  1
  O  O301  1  0.69900564  0.42800770  0.40309454  1
  O  O302  1  0.69900564  0.42800770  0.73642788  1
  O  O303  1  0.69900564  0.76134103  0.06976121  1
  O  O304  1  0.69900564  0.76134103  0.40309454  1
  O  O305  1  0.69900564  0.76134103  0.73642788  1
  O  O306  1  0.44900564  0.26134103  0.06976121  1
  O  O307  1  0.44900564  0.26134103  0.40309454  1
  O  O308  1  0.44900564  0.26134103  0.73642788  1
  O  O309  1  0.44900564  0.59467437  0.06976121  1
  O  O310  1  0.44900564  0.59467437  0.40309454  1
  O  O311  1  0.44900564  0.59467437  0.73642788  1
  O  O312  1  0.44900564  0.92800770  0.06976121  1
  O  O313  1  0.44900564  0.92800770  0.40309454  1
  O  O314  1  0.44900564  0.92800770  0.73642788  1
  O  O315  1  0.94900564  0.26134103  0.06976121  1
  O  O316  1  0.94900564  0.26134103  0.40309454  1
  O  O317  1  0.94900564  0.26134103  0.73642788  1
  O  O318  1  0.94900564  0.59467437  0.06976121  1
  O  O319  1  0.94900564  0.59467437  0.40309454  1
  O  O320  1  0.94900564  0.59467437  0.73642788  1
  O  O321  1  0.94900564  0.92800770  0.06976121  1
  O  O322  1  0.94900564  0.92800770  0.40309454  1
  O  O323  1  0.94900564  0.92800770  0.73642788  1
  O  O324  1  0.30099436  0.09467437  0.26357212  1
  O  O325  1  0.30099436  0.09467437  0.59690546  1
  O  O326  1  0.30099436  0.09467437  0.93023879  1
  O  O327  1  0.30099436  0.42800770  0.26357212  1
  O  O328  1  0.30099436  0.42800770  0.59690546  1
  O  O329  1  0.30099436  0.42800770  0.93023879  1
  O  O330  1  0.30099436  0.76134103  0.26357212  1
  O  O331  1  0.30099436  0.76134103  0.59690546  1
  O  O332  1  0.30099436  0.76134103  0.93023879  1
  O  O333  1  0.80099436  0.09467437  0.26357212  1
  O  O334  1  0.80099436  0.09467437  0.59690546  1
  O  O335  1  0.80099436  0.09467437  0.93023879  1
  O  O336  1  0.80099436  0.42800770  0.26357212  1
  O  O337  1  0.80099436  0.42800770  0.59690546  1
  O  O338  1  0.80099436  0.42800770  0.93023879  1
  O  O339  1  0.80099436  0.76134103  0.26357212  1
  O  O340  1  0.80099436  0.76134103  0.59690546  1
  O  O341  1  0.80099436  0.76134103  0.93023879  1
  O  O342  1  0.55099436  0.26134103  0.26357212  1
  O  O343  1  0.55099436  0.26134103  0.59690546  1
  O  O344  1  0.55099436  0.26134103  0.93023879  1
  O  O345  1  0.55099436  0.59467437  0.26357212  1
  O  O346  1  0.55099436  0.59467437  0.59690546  1
  O  O347  1  0.55099436  0.59467437  0.93023879  1
  O  O348  1  0.55099436  0.92800770  0.26357212  1
  O  O349  1  0.55099436  0.92800770  0.59690546  1
  O  O350  1  0.55099436  0.92800770  0.93023879  1
  O  O351  1  1.05099436  0.26134103  0.26357212  1
  O  O352  1  1.05099436  0.26134103  0.59690546  1
  O  O353  1  1.05099436  0.26134103  0.93023879  1
  O  O354  1  1.05099436  0.59467437  0.26357212  1
  O  O355  1  1.05099436  0.59467437  0.59690546  1
  O  O356  1  1.05099436  0.59467437  0.93023879  1
  O  O357  1  1.05099436  0.92800770  0.26357212  1
  O  O358  1  1.05099436  0.92800770  0.59690546  1
  O  O359  1  1.05099436  0.92800770  0.93023879  1
  O  O360  1  0.35030658  0.00000000  0.10695672  1
  O  O361  1  0.35030658  0.00000000  0.44029006  1
  O  O362  1  0.35030658  0.00000000  0.77362339  1
  O  O363  1  0.35030658  0.33333333  0.10695672  1
  O  O364  1  0.35030658  0.33333333  0.44029006  1
  O  O365  1  0.35030658  0.33333333  0.77362339  1
  O  O366  1  0.35030658  0.66666667  0.10695672  1
  O  O367  1  0.35030658  0.66666667  0.44029006  1
  O  O368  1  0.35030658  0.66666667  0.77362339  1
  O  O369  1  0.85030658  0.00000000  0.10695672  1
  O  O370  1  0.85030658  0.00000000  0.44029006  1
  O  O371  1  0.85030658  0.00000000  0.77362339  1
  O  O372  1  0.85030658  0.33333333  0.10695672  1
  O  O373  1  0.85030658  0.33333333  0.44029006  1
  O  O374  1  0.85030658  0.33333333  0.77362339  1
  O  O375  1  0.85030658  0.66666667  0.10695672  1
  O  O376  1  0.85030658  0.66666667  0.44029006  1
  O  O377  1  0.85030658  0.66666667  0.77362339  1
  O  O378  1  0.60030658  0.16666667  0.10695672  1
  O  O379  1  0.60030658  0.16666667  0.44029006  1
  O  O380  1  0.60030658  0.16666667  0.77362339  1
  O  O381  1  0.60030658  0.50000000  0.10695672  1
  O  O382  1  0.60030658  0.50000000  0.44029006  1
  O  O383  1  0.60030658  0.50000000  0.77362339  1
  O  O384  1  0.60030658  0.83333333  0.10695672  1
  O  O385  1  0.60030658  0.83333333  0.44029006  1
  O  O386  1  0.60030658  0.83333333  0.77362339  1
  O  O387  1  1.10030658  0.16666667  0.10695672  1
  O  O388  1  1.10030658  0.16666667  0.44029006  1
  O  O389  1  1.10030658  0.16666667  0.77362339  1
  O  O390  1  1.10030658  0.50000000  0.10695672  1
  O  O391  1  1.10030658  0.50000000  0.44029006  1
  O  O392  1  1.10030658  0.50000000  0.77362339  1
  O  O393  1  1.10030658  0.83333333  0.10695672  1
  O  O394  1  1.10030658  0.83333333  0.44029006  1
  O  O395  1  1.10030658  0.83333333  0.77362339  1
  O  O396  1  0.14969342  0.00000000  0.22637661  1
  O  O397  1  0.14969342  0.00000000  0.55970994  1
  O  O398  1  0.14969342  0.00000000  0.89304328  1
  O  O399  1  0.14969342  0.33333333  0.22637661  1
  O  O400  1  0.14969342  0.33333333  0.55970994  1
  O  O401  1  0.14969342  0.33333333  0.89304328  1
  O  O402  1  0.14969342  0.66666667  0.22637661  1
  O  O403  1  0.14969342  0.66666667  0.55970994  1
  O  O404  1  0.14969342  0.66666667  0.89304328  1
  O  O405  1  0.64969342  0.00000000  0.22637661  1
  O  O406  1  0.64969342  0.00000000  0.55970994  1
  O  O407  1  0.64969342  0.00000000  0.89304328  1
  O  O408  1  0.64969342  0.33333333  0.22637661  1
  O  O409  1  0.64969342  0.33333333  0.55970994  1
  O  O410  1  0.64969342  0.33333333  0.89304328  1
  O  O411  1  0.64969342  0.66666667  0.22637661  1
  O  O412  1  0.64969342  0.66666667  0.55970994  1
  O  O413  1  0.64969342  0.66666667  0.89304328  1
  O  O414  1  0.39969342  0.16666667  0.22637661  1
  O  O415  1  0.39969342  0.16666667  0.55970994  1
  O  O416  1  0.39969342  0.16666667  0.89304328  1
  O  O417  1  0.39969342  0.50000000  0.22637661  1
  O  O418  1  0.39969342  0.50000000  0.55970994  1
  O  O419  1  0.39969342  0.50000000  0.89304328  1
  O  O420  1  0.39969342  0.83333333  0.22637661  1
  O  O421  1  0.39969342  0.83333333  0.55970994  1
  O  O422  1  0.39969342  0.83333333  0.89304328  1
  O  O423  1  0.89969342  0.16666667  0.22637661  1
  O  O424  1  0.89969342  0.16666667  0.55970994  1
  O  O425  1  0.89969342  0.16666667  0.89304328  1
  O  O426  1  0.89969342  0.50000000  0.22637661  1
  O  O427  1  0.89969342  0.50000000  0.55970994  1
  O  O428  1  0.89969342  0.50000000  0.89304328  1
  O  O429  1  0.89969342  0.83333333  0.22637661  1
  O  O430  1  0.89969342  0.83333333  0.55970994  1
  O  O431  1  0.89969342  0.83333333  0.89304328  1
