# generated using pymatgen
data_SbO2
_symmetry_space_group_name_H-M   'P 1'
_cell_length_a   10.93997390
_cell_length_b   9.68114816
_cell_length_c   11.77711890
_cell_angle_alpha   90.00000000
_cell_angle_beta   90.00000000
_cell_angle_gamma   90.00000000
_symmetry_Int_Tables_number   1
_chemical_formula_structural   SbO2
_chemical_formula_sum   'Sb32 O64'
_cell_volume   1247.33242591
_cell_formula_units_Z   32
loop_
 _symmetry_equiv_pos_site_id
 _symmetry_equiv_pos_as_xyz
  1  'x, y, z'
loop_
 _atom_site_type_symbol
 _atom_site_label
 _atom_site_symmetry_multiplicity
 _atom_site_fract_x
 _atom_site_fract_y
 _atom_site_fract_z
 _atom_site_occupancy
  Sb  Sb0  1  0.23760171  0.23447779  0.50097114  1
  Sb  Sb1  1  0.23760171  0.73447779  0.50097114  1
  Sb  Sb2  1  0.73760171  0.23447779  0.50097114  1
  Sb  Sb3  1  0.73760171  0.73447779  0.50097114  1
  Sb  Sb4  1  0.26239829  0.26552221  0.00097114  1
  Sb  Sb5  1  0.26239829  0.76552221  0.00097114  1
  Sb  Sb6  1  0.76239829  0.26552221  0.00097114  1
  Sb  Sb7  1  0.76239829  0.76552221  0.00097114  1
  Sb  Sb8  1  0.48760171  0.01552221  0.50097114  1
  Sb  Sb9  1  0.48760171  0.51552221  0.50097114  1
  Sb  Sb10  1  0.98760171  0.01552221  0.50097114  1
  Sb  Sb11  1  0.98760171  0.51552221  0.50097114  1
  Sb  Sb12  1  0.01239829  0.48447779  0.00097114  1
  Sb  Sb13  1  0.01239829  0.98447779  0.00097114  1
  Sb  Sb14  1  0.51239829  0.48447779  0.00097114  1
  Sb  Sb15  1  0.51239829  0.98447779  0.00097114  1
  Sb  Sb16  1  0.43539581  0.25084072  0.25303594  1
  Sb  Sb17  1  0.43539581  0.75084072  0.25303594  1
  Sb  Sb18  1  0.93539581  0.25084072  0.25303594  1
  Sb  Sb19  1  0.93539581  0.75084072  0.25303594  1
  Sb  Sb20  1  0.06460419  0.24915928  0.75303594  1
  Sb  Sb21  1  0.06460419  0.74915928  0.75303594  1
  Sb  Sb22  1  0.56460419  0.24915928  0.75303594  1
  Sb  Sb23  1  0.56460419  0.74915928  0.75303594  1
  Sb  Sb24  1  0.18539581  0.49915928  0.25303594  1
  Sb  Sb25  1  0.18539581  0.99915928  0.25303594  1
  Sb  Sb26  1  0.68539581  0.49915928  0.25303594  1
  Sb  Sb27  1  0.68539581  0.99915928  0.25303594  1
  Sb  Sb28  1  0.31460419  0.00084072  0.75303594  1
  Sb  Sb29  1  0.31460419  0.50084072  0.75303594  1
  Sb  Sb30  1  0.81460419  0.00084072  0.75303594  1
  Sb  Sb31  1  0.81460419  0.50084072  0.75303594  1
  O  O32  1  0.42492241  0.33339108  0.09479512  1
  O  O33  1  0.42492241  0.83339108  0.09479512  1
  O  O34  1  0.92492241  0.33339108  0.09479512  1
  O  O35  1  0.92492241  0.83339108  0.09479512  1
  O  O36  1  0.07507759  0.16660892  0.59479512  1
  O  O37  1  0.07507759  0.66660892  0.59479512  1
  O  O38  1  0.57507759  0.16660892  0.59479512  1
  O  O39  1  0.57507759  0.66660892  0.59479512  1
  O  O40  1  0.17492241  0.41660892  0.09479512  1
  O  O41  1  0.17492241  0.91660892  0.09479512  1
  O  O42  1  0.67492241  0.41660892  0.09479512  1
  O  O43  1  0.67492241  0.91660892  0.09479512  1
  O  O44  1  0.32507759  0.08339108  0.59479512  1
  O  O45  1  0.32507759  0.58339108  0.59479512  1
  O  O46  1  0.82507759  0.08339108  0.59479512  1
  O  O47  1  0.82507759  0.58339108  0.59479512  1
  O  O48  1  0.28774859  0.15238976  0.19337393  1
  O  O49  1  0.28774859  0.65238976  0.19337393  1
  O  O50  1  0.78774859  0.15238976  0.19337393  1
  O  O51  1  0.78774859  0.65238976  0.19337393  1
  O  O52  1  0.21225141  0.34761024  0.69337393  1
  O  O53  1  0.21225141  0.84761024  0.69337393  1
  O  O54  1  0.71225141  0.34761024  0.69337393  1
  O  O55  1  0.71225141  0.84761024  0.69337393  1
  O  O56  1  0.03774859  0.09761024  0.19337393  1
  O  O57  1  0.03774859  0.59761024  0.19337393  1
  O  O58  1  0.53774859  0.09761024  0.19337393  1
  O  O59  1  0.53774859  0.59761024  0.19337393  1
  O  O60  1  0.46225141  0.40238976  0.69337393  1
  O  O61  1  0.46225141  0.90238976  0.69337393  1
  O  O62  1  0.96225141  0.40238976  0.69337393  1
  O  O63  1  0.96225141  0.90238976  0.69337393  1
  O  O64  1  0.34229727  0.42044234  0.90785472  1
  O  O65  1  0.34229727  0.92044234  0.90785472  1
  O  O66  1  0.84229727  0.42044234  0.90785472  1
  O  O67  1  0.84229727  0.92044234  0.90785472  1
  O  O68  1  0.15770273  0.07955766  0.40785472  1
  O  O69  1  0.15770273  0.57955766  0.40785472  1
  O  O70  1  0.65770273  0.07955766  0.40785472  1
  O  O71  1  0.65770273  0.57955766  0.40785472  1
  O  O72  1  0.09229727  0.32955766  0.90785472  1
  O  O73  1  0.09229727  0.82955766  0.90785472  1
  O  O74  1  0.59229727  0.32955766  0.90785472  1
  O  O75  1  0.59229727  0.82955766  0.90785472  1
  O  O76  1  0.40770273  0.17044234  0.40785472  1
  O  O77  1  0.40770273  0.67044234  0.40785472  1
  O  O78  1  0.90770273  0.17044234  0.40785472  1
  O  O79  1  0.90770273  0.67044234  0.40785472  1
  O  O80  1  0.42168263  0.15021523  0.81337014  1
  O  O81  1  0.42168263  0.65021523  0.81337014  1
  O  O82  1  0.92168263  0.15021523  0.81337014  1
  O  O83  1  0.92168263  0.65021523  0.81337014  1
  O  O84  1  0.07831737  0.34978477  0.31337014  1
  O  O85  1  0.07831737  0.84978477  0.31337014  1
  O  O86  1  0.57831737  0.34978477  0.31337014  1
  O  O87  1  0.57831737  0.84978477  0.31337014  1
  O  O88  1  0.17168263  0.09978477  0.81337014  1
  O  O89  1  0.17168263  0.59978477  0.81337014  1
  O  O90  1  0.67168263  0.09978477  0.81337014  1
  O  O91  1  0.67168263  0.59978477  0.81337014  1
  O  O92  1  0.32831737  0.40021523  0.31337014  1
  O  O93  1  0.32831737  0.90021523  0.31337014  1
  O  O94  1  0.82831737  0.40021523  0.31337014  1
  O  O95  1  0.82831737  0.90021523  0.31337014  1
