# generated using pymatgen
data_NaNbO3
_symmetry_space_group_name_H-M   'P 1'
_cell_length_a   16.06981003
_cell_length_b   16.06981003
_cell_length_c   15.43985425
_cell_angle_alpha   90.00000000
_cell_angle_beta   90.00000000
_cell_angle_gamma   120.00000000
_symmetry_Int_Tables_number   1
_chemical_formula_structural   NaNbO3
_chemical_formula_sum   'Na54 Nb54 O162'
_cell_volume   3452.98994354
_cell_formula_units_Z   54
loop_
 _symmetry_equiv_pos_site_id
 _symmetry_equiv_pos_as_xyz
  1  'x, y, z'
loop_
 _atom_site_type_symbol
 _atom_site_label
 _atom_site_symmetry_multiplicity
 _atom_site_fract_x
 _atom_site_fract_y
 _atom_site_fract_z
 _atom_site_occupancy
  Na  Na0  1  -0.00000000  -0.00000000  0.64190416  1
  Na  Na1  1  0.00000000  0.33333333  0.64190416  1
  Na  Na2  1  0.00000000  0.66666667  0.64190416  1
  Na  Na3  1  0.33333333  -0.00000000  0.64190416  1
  Na  Na4  1  0.33333333  0.33333333  0.64190416  1
  Na  Na5  1  0.33333333  0.66666667  0.64190416  1
  Na  Na6  1  0.66666667  -0.00000000  0.64190416  1
  Na  Na7  1  0.66666667  0.33333333  0.64190416  1
  Na  Na8  1  0.66666667  0.66666667  0.64190416  1
  Na  Na9  1  0.22222222  0.11111111  0.97523749  1
  Na  Na10  1  0.22222222  0.44444444  0.97523749  1
  Na  Na11  1  0.22222222  0.77777778  0.97523749  1
  Na  Na12  1  0.55555556  0.11111111  0.97523749  1
  Na  Na13  1  0.55555556  0.44444444  0.97523749  1
  Na  Na14  1  0.55555556  0.77777778  0.97523749  1
  Na  Na15  1  0.88888889  0.11111111  0.97523749  1
  Na  Na16  1  0.88888889  0.44444444  0.97523749  1
  Na  Na17  1  0.88888889  0.77777778  0.97523749  1
  Na  Na18  1  0.11111111  0.22222222  1.30857083  1
  Na  Na19  1  0.11111111  0.55555556  1.30857083  1
  Na  Na20  1  0.11111111  0.88888889  1.30857083  1
  Na  Na21  1  0.44444444  0.22222222  1.30857083  1
  Na  Na22  1  0.44444444  0.55555556  1.30857083  1
  Na  Na23  1  0.44444444  0.88888889  1.30857083  1
  Na  Na24  1  0.77777778  0.22222222  1.30857083  1
  Na  Na25  1  0.77777778  0.55555556  1.30857083  1
  Na  Na26  1  0.77777778  0.88888889  1.30857083  1
  Na  Na27  1  0.00000000  0.00000000  0.35809584  1
  Na  Na28  1  0.00000000  0.33333333  0.35809584  1
  Na  Na29  1  0.00000000  0.66666667  0.35809584  1
  Na  Na30  1  0.33333333  0.00000000  0.35809584  1
  Na  Na31  1  0.33333333  0.33333333  0.35809584  1
  Na  Na32  1  0.33333333  0.66666667  0.35809584  1
  Na  Na33  1  0.66666667  0.00000000  0.35809584  1
  Na  Na34  1  0.66666667  0.33333333  0.35809584  1
  Na  Na35  1  0.66666667  0.66666667  0.35809584  1
  Na  Na36  1  0.22222222  0.11111111  0.69142917  1
  Na  Na37  1  0.22222222  0.44444444  0.69142917  1
  Na  Na38  1  0.22222222  0.77777778  0.69142917  1
  Na  Na39  1  0.55555556  0.11111111  0.69142917  1
  Na  Na40  1  0.55555556  0.44444444  0.69142917  1
  Na  Na41  1  0.55555556  0.77777778  0.69142917  1
  Na  Na42  1  0.88888889  0.11111111  0.69142917  1
  Na  Na43  1  0.88888889  0.44444444  0.69142917  1
  Na  Na44  1  0.88888889  0.77777778  0.69142917  1
  Na  Na45  1  0.11111111  0.22222222  1.02476251  1
  Na  Na46  1  0.11111111  0.55555556  1.02476251  1
  Na  Na47  1  0.11111111  0.88888889  1.02476251  1
  Na  Na48  1  0.44444444  0.22222222  1.02476251  1
  Na  Na49  1  0.44444444  0.55555556  1.02476251  1
  Na  Na50  1  0.44444444  0.88888889  1.02476251  1
  Na  Na51  1  0.77777778  0.22222222  1.02476251  1
  Na  Na52  1  0.77777778  0.55555556  1.02476251  1
  Na  Na53  1  0.77777778  0.88888889  1.02476251  1
  Nb  Nb54  1  -0.00000000  -0.00000000  0.85202693  1
  Nb  Nb55  1  -0.00000000  0.33333333  0.85202693  1
  Nb  Nb56  1  0.00000000  0.66666667  0.85202693  1
  Nb  Nb57  1  0.33333333  -0.00000000  0.85202693  1
  Nb  Nb58  1  0.33333333  0.33333333  0.85202693  1
  Nb  Nb59  1  0.33333333  0.66666667  0.85202693  1
  Nb  Nb60  1  0.66666667  -0.00000000  0.85202693  1
  Nb  Nb61  1  0.66666667  0.33333333  0.85202693  1
  Nb  Nb62  1  0.66666667  0.66666667  0.85202693  1
  Nb  Nb63  1  0.22222222  0.11111111  1.18536026  1
  Nb  Nb64  1  0.22222222  0.44444444  1.18536026  1
  Nb  Nb65  1  0.22222222  0.77777778  1.18536026  1
  Nb  Nb66  1  0.55555556  0.11111111  1.18536026  1
  Nb  Nb67  1  0.55555556  0.44444444  1.18536026  1
  Nb  Nb68  1  0.55555556  0.77777778  1.18536026  1
  Nb  Nb69  1  0.88888889  0.11111111  1.18536026  1
  Nb  Nb70  1  0.88888889  0.44444444  1.18536026  1
  Nb  Nb71  1  0.88888889  0.77777778  1.18536026  1
  Nb  Nb72  1  0.11111111  0.22222222  1.51869359  1
  Nb  Nb73  1  0.11111111  0.55555556  1.51869359  1
  Nb  Nb74  1  0.11111111  0.88888889  1.51869359  1
  Nb  Nb75  1  0.44444444  0.22222222  1.51869359  1
  Nb  Nb76  1  0.44444444  0.55555556  1.51869359  1
  Nb  Nb77  1  0.44444444  0.88888889  1.51869359  1
  Nb  Nb78  1  0.77777778  0.22222222  1.51869359  1
  Nb  Nb79  1  0.77777778  0.55555556  1.51869359  1
  Nb  Nb80  1  0.77777778  0.88888889  1.51869359  1
  Nb  Nb81  1  -0.00000000  -0.00000000  0.14797307  1
  Nb  Nb82  1  0.00000000  0.33333333  0.14797307  1
  Nb  Nb83  1  0.00000000  0.66666667  0.14797307  1
  Nb  Nb84  1  0.33333333  -0.00000000  0.14797307  1
  Nb  Nb85  1  0.33333333  0.33333333  0.14797307  1
  Nb  Nb86  1  0.33333333  0.66666667  0.14797307  1
  Nb  Nb87  1  0.66666667  -0.00000000  0.14797307  1
  Nb  Nb88  1  0.66666667  0.33333333  0.14797307  1
  Nb  Nb89  1  0.66666667  0.66666667  0.14797307  1
  Nb  Nb90  1  0.22222222  0.11111111  0.48130641  1
  Nb  Nb91  1  0.22222222  0.44444444  0.48130641  1
  Nb  Nb92  1  0.22222222  0.77777778  0.48130641  1
  Nb  Nb93  1  0.55555556  0.11111111  0.48130641  1
  Nb  Nb94  1  0.55555556  0.44444444  0.48130641  1
  Nb  Nb95  1  0.55555556  0.77777778  0.48130641  1
  Nb  Nb96  1  0.88888889  0.11111111  0.48130641  1
  Nb  Nb97  1  0.88888889  0.44444444  0.48130641  1
  Nb  Nb98  1  0.88888889  0.77777778  0.48130641  1
  Nb  Nb99  1  0.11111111  0.22222222  0.81463974  1
  Nb  Nb100  1  0.11111111  0.55555556  0.81463974  1
  Nb  Nb101  1  0.11111111  0.88888889  0.81463974  1
  Nb  Nb102  1  0.44444444  0.22222222  0.81463974  1
  Nb  Nb103  1  0.44444444  0.55555556  0.81463974  1
  Nb  Nb104  1  0.44444444  0.88888889  0.81463974  1
  Nb  Nb105  1  0.77777778  0.22222222  0.81463974  1
  Nb  Nb106  1  0.77777778  0.55555556  0.81463974  1
  Nb  Nb107  1  0.77777778  0.88888889  0.81463974  1
  O  O108  1  0.00448857  0.13214133  0.42650036  1
  O  O109  1  0.00448857  0.46547466  0.42650036  1
  O  O110  1  0.00448857  0.79880800  0.42650036  1
  O  O111  1  0.33782190  0.13214133  0.42650036  1
  O  O112  1  0.33782190  0.46547466  0.42650036  1
  O  O113  1  0.33782190  0.79880800  0.42650036  1
  O  O114  1  0.67115523  0.13214133  0.42650036  1
  O  O115  1  0.67115523  0.46547466  0.42650036  1
  O  O116  1  0.67115523  0.79880800  0.42650036  1
  O  O117  1  0.22671079  0.24325244  0.75983370  1
  O  O118  1  0.22671079  0.57658577  0.75983370  1
  O  O119  1  0.22671079  0.90991911  0.75983370  1
  O  O120  1  0.56004412  0.24325244  0.75983370  1
  O  O121  1  0.56004412  0.57658577  0.75983370  1
  O  O122  1  0.56004412  0.90991911  0.75983370  1
  O  O123  1  0.89337746  0.24325244  0.75983370  1
  O  O124  1  0.89337746  0.57658577  0.75983370  1
  O  O125  1  0.89337746  0.90991911  0.75983370  1
  O  O126  1  0.11559968  0.35436355  1.09316703  1
  O  O127  1  0.11559968  0.68769688  1.09316703  1
  O  O128  1  0.11559968  1.02103022  1.09316703  1
  O  O129  1  0.44893301  0.35436355  1.09316703  1
  O  O130  1  0.44893301  0.68769688  1.09316703  1
  O  O131  1  0.44893301  1.02103022  1.09316703  1
  O  O132  1  0.78226634  0.35436355  1.09316703  1
  O  O133  1  0.78226634  0.68769688  1.09316703  1
  O  O134  1  0.78226634  1.02103022  1.09316703  1
  O  O135  1  -0.13214133  -0.12765276  0.42650036  1
  O  O136  1  -0.13214133  0.20568057  0.42650036  1
  O  O137  1  -0.13214133  0.53901390  0.42650036  1
  O  O138  1  0.20119200  -0.12765276  0.42650036  1
  O  O139  1  0.20119200  0.20568057  0.42650036  1
  O  O140  1  0.20119200  0.53901390  0.42650036  1
  O  O141  1  0.53452534  -0.12765276  0.42650036  1
  O  O142  1  0.53452534  0.20568057  0.42650036  1
  O  O143  1  0.53452534  0.53901390  0.42650036  1
  O  O144  1  0.09008089  -0.01654165  0.75983370  1
  O  O145  1  0.09008089  0.31679168  0.75983370  1
  O  O146  1  0.09008089  0.65012501  0.75983370  1
  O  O147  1  0.42341423  -0.01654165  0.75983370  1
  O  O148  1  0.42341423  0.31679168  0.75983370  1
  O  O149  1  0.42341423  0.65012501  0.75983370  1
  O  O150  1  0.75674756  -0.01654165  0.75983370  1
  O  O151  1  0.75674756  0.31679168  0.75983370  1
  O  O152  1  0.75674756  0.65012501  0.75983370  1
  O  O153  1  -0.02103022  0.09456946  1.09316703  1
  O  O154  1  -0.02103022  0.42790279  1.09316703  1
  O  O155  1  -0.02103022  0.76123613  1.09316703  1
  O  O156  1  0.31230312  0.09456946  1.09316703  1
  O  O157  1  0.31230312  0.42790279  1.09316703  1
  O  O158  1  0.31230312  0.76123613  1.09316703  1
  O  O159  1  0.64563645  0.09456946  1.09316703  1
  O  O160  1  0.64563645  0.42790279  1.09316703  1
  O  O161  1  0.64563645  0.76123613  1.09316703  1
  O  O162  1  0.12765276  -0.00448857  0.42650036  1
  O  O163  1  0.12765276  0.32884477  0.42650036  1
  O  O164  1  0.12765276  0.66217810  0.42650036  1
  O  O165  1  0.46098610  -0.00448857  0.42650036  1
  O  O166  1  0.46098610  0.32884477  0.42650036  1
  O  O167  1  0.46098610  0.66217810  0.42650036  1
  O  O168  1  0.79431943  -0.00448857  0.42650036  1
  O  O169  1  0.79431943  0.32884477  0.42650036  1
  O  O170  1  0.79431943  0.66217810  0.42650036  1
  O  O171  1  0.34987499  0.10662254  0.75983370  1
  O  O172  1  0.34987499  0.43995588  0.75983370  1
  O  O173  1  0.34987499  0.77328921  0.75983370  1
  O  O174  1  0.68320832  0.10662254  0.75983370  1
  O  O175  1  0.68320832  0.43995588  0.75983370  1
  O  O176  1  0.68320832  0.77328921  0.75983370  1
  O  O177  1  1.01654165  0.10662254  0.75983370  1
  O  O178  1  1.01654165  0.43995588  0.75983370  1
  O  O179  1  1.01654165  0.77328921  0.75983370  1
  O  O180  1  0.23876387  0.21773366  1.09316703  1
  O  O181  1  0.23876387  0.55106699  1.09316703  1
  O  O182  1  0.23876387  0.88440032  1.09316703  1
  O  O183  1  0.57209721  0.21773366  1.09316703  1
  O  O184  1  0.57209721  0.55106699  1.09316703  1
  O  O185  1  0.57209721  0.88440032  1.09316703  1
  O  O186  1  0.90543054  0.21773366  1.09316703  1
  O  O187  1  0.90543054  0.55106699  1.09316703  1
  O  O188  1  0.90543054  0.88440032  1.09316703  1
  O  O189  1  -0.00448857  -0.13214133  0.57349964  1
  O  O190  1  -0.00448857  0.20119200  0.57349964  1
  O  O191  1  -0.00448857  0.53452534  0.57349964  1
  O  O192  1  0.32884477  -0.13214133  0.57349964  1
  O  O193  1  0.32884477  0.20119200  0.57349964  1
  O  O194  1  0.32884477  0.53452534  0.57349964  1
  O  O195  1  0.66217810  -0.13214133  0.57349964  1
  O  O196  1  0.66217810  0.20119200  0.57349964  1
  O  O197  1  0.66217810  0.53452534  0.57349964  1
  O  O198  1  0.21773366  -0.02103022  0.90683297  1
  O  O199  1  0.21773366  0.31230312  0.90683297  1
  O  O200  1  0.21773366  0.64563645  0.90683297  1
  O  O201  1  0.55106699  -0.02103022  0.90683297  1
  O  O202  1  0.55106699  0.31230312  0.90683297  1
  O  O203  1  0.55106699  0.64563645  0.90683297  1
  O  O204  1  0.88440032  -0.02103022  0.90683297  1
  O  O205  1  0.88440032  0.31230312  0.90683297  1
  O  O206  1  0.88440032  0.64563645  0.90683297  1
  O  O207  1  0.10662254  0.09008089  1.24016630  1
  O  O208  1  0.10662254  0.42341423  1.24016630  1
  O  O209  1  0.10662254  0.75674756  1.24016630  1
  O  O210  1  0.43995588  0.09008089  1.24016630  1
  O  O211  1  0.43995588  0.42341423  1.24016630  1
  O  O212  1  0.43995588  0.75674756  1.24016630  1
  O  O213  1  0.77328921  0.09008089  1.24016630  1
  O  O214  1  0.77328921  0.42341423  1.24016630  1
  O  O215  1  0.77328921  0.75674756  1.24016630  1
  O  O216  1  0.13214133  0.12765276  0.57349964  1
  O  O217  1  0.13214133  0.46098610  0.57349964  1
  O  O218  1  0.13214133  0.79431943  0.57349964  1
  O  O219  1  0.46547466  0.12765276  0.57349964  1
  O  O220  1  0.46547466  0.46098610  0.57349964  1
  O  O221  1  0.46547466  0.79431943  0.57349964  1
  O  O222  1  0.79880800  0.12765276  0.57349964  1
  O  O223  1  0.79880800  0.46098610  0.57349964  1
  O  O224  1  0.79880800  0.79431943  0.57349964  1
  O  O225  1  0.35436355  0.23876387  0.90683297  1
  O  O226  1  0.35436355  0.57209721  0.90683297  1
  O  O227  1  0.35436355  0.90543054  0.90683297  1
  O  O228  1  0.68769688  0.23876387  0.90683297  1
  O  O229  1  0.68769688  0.57209721  0.90683297  1
  O  O230  1  0.68769688  0.90543054  0.90683297  1
  O  O231  1  1.02103022  0.23876387  0.90683297  1
  O  O232  1  1.02103022  0.57209721  0.90683297  1
  O  O233  1  1.02103022  0.90543054  0.90683297  1
  O  O234  1  0.24325244  0.34987499  1.24016630  1
  O  O235  1  0.24325244  0.68320832  1.24016630  1
  O  O236  1  0.24325244  1.01654165  1.24016630  1
  O  O237  1  0.57658577  0.34987499  1.24016630  1
  O  O238  1  0.57658577  0.68320832  1.24016630  1
  O  O239  1  0.57658577  1.01654165  1.24016630  1
  O  O240  1  0.90991911  0.34987499  1.24016630  1
  O  O241  1  0.90991911  0.68320832  1.24016630  1
  O  O242  1  0.90991911  1.01654165  1.24016630  1
  O  O243  1  -0.12765276  0.00448857  0.57349964  1
  O  O244  1  -0.12765276  0.33782190  0.57349964  1
  O  O245  1  -0.12765276  0.67115523  0.57349964  1
  O  O246  1  0.20568057  0.00448857  0.57349964  1
  O  O247  1  0.20568057  0.33782190  0.57349964  1
  O  O248  1  0.20568057  0.67115523  0.57349964  1
  O  O249  1  0.53901390  0.00448857  0.57349964  1
  O  O250  1  0.53901390  0.33782190  0.57349964  1
  O  O251  1  0.53901390  0.67115523  0.57349964  1
  O  O252  1  0.09456946  0.11559968  0.90683297  1
  O  O253  1  0.09456946  0.44893301  0.90683297  1
  O  O254  1  0.09456946  0.78226634  0.90683297  1
  O  O255  1  0.42790279  0.11559968  0.90683297  1
  O  O256  1  0.42790279  0.44893301  0.90683297  1
  O  O257  1  0.42790279  0.78226634  0.90683297  1
  O  O258  1  0.76123613  0.11559968  0.90683297  1
  O  O259  1  0.76123613  0.44893301  0.90683297  1
  O  O260  1  0.76123613  0.78226634  0.90683297  1
  O  O261  1  -0.01654165  0.22671079  1.24016630  1
  O  O262  1  -0.01654165  0.56004412  1.24016630  1
  O  O263  1  -0.01654165  0.89337746  1.24016630  1
  O  O264  1  0.31679168  0.22671079  1.24016630  1
  O  O265  1  0.31679168  0.56004412  1.24016630  1
  O  O266  1  0.31679168  0.89337746  1.24016630  1
  O  O267  1  0.65012501  0.22671079  1.24016630  1
  O  O268  1  0.65012501  0.56004412  1.24016630  1
  O  O269  1  0.65012501  0.89337746  1.24016630  1
