# generated using pymatgen
data_AlCuO2
_symmetry_space_group_name_H-M   'P 1'
_cell_length_a   17.11712208
_cell_length_b   17.11712208
_cell_length_c   16.82782533
_cell_angle_alpha   90.00000000
_cell_angle_beta   90.00000000
_cell_angle_gamma   120.00000000
_symmetry_Int_Tables_number   1
_chemical_formula_structural   AlCuO2
_chemical_formula_sum   'Al108 Cu108 O216'
_cell_volume   4269.92378772
_cell_formula_units_Z   108
loop_
 _symmetry_equiv_pos_site_id
 _symmetry_equiv_pos_as_xyz
  1  'x, y, z'
loop_
 _atom_site_type_symbol
 _atom_site_label
 _atom_site_symmetry_multiplicity
 _atom_site_fract_x
 _atom_site_fract_y
 _atom_site_fract_z
 _atom_site_occupancy
  Al  Al0  1  -0.00000000  -0.00000000  0.50000000  1
  Al  Al1  1  -0.00000000  0.16666667  0.50000000  1
  Al  Al2  1  -0.00000000  0.33333333  0.50000000  1
  Al  Al3  1  -0.00000000  0.50000000  0.50000000  1
  Al  Al4  1  -0.00000000  0.66666667  0.50000000  1
  Al  Al5  1  -0.00000000  0.83333333  0.50000000  1
  Al  Al6  1  0.16666667  -0.00000000  0.50000000  1
  Al  Al7  1  0.16666667  0.16666667  0.50000000  1
  Al  Al8  1  0.16666667  0.33333333  0.50000000  1
  Al  Al9  1  0.16666667  0.50000000  0.50000000  1
  Al  Al10  1  0.16666667  0.66666667  0.50000000  1
  Al  Al11  1  0.16666667  0.83333333  0.50000000  1
  Al  Al12  1  0.33333333  -0.00000000  0.50000000  1
  Al  Al13  1  0.33333333  0.16666667  0.50000000  1
  Al  Al14  1  0.33333333  0.33333333  0.50000000  1
  Al  Al15  1  0.33333333  0.50000000  0.50000000  1
  Al  Al16  1  0.33333333  0.66666667  0.50000000  1
  Al  Al17  1  0.33333333  0.83333333  0.50000000  1
  Al  Al18  1  0.50000000  -0.00000000  0.50000000  1
  Al  Al19  1  0.50000000  0.16666667  0.50000000  1
  Al  Al20  1  0.50000000  0.33333333  0.50000000  1
  Al  Al21  1  0.50000000  0.50000000  0.50000000  1
  Al  Al22  1  0.50000000  0.66666667  0.50000000  1
  Al  Al23  1  0.50000000  0.83333333  0.50000000  1
  Al  Al24  1  0.66666667  -0.00000000  0.50000000  1
  Al  Al25  1  0.66666667  0.16666667  0.50000000  1
  Al  Al26  1  0.66666667  0.33333333  0.50000000  1
  Al  Al27  1  0.66666667  0.50000000  0.50000000  1
  Al  Al28  1  0.66666667  0.66666667  0.50000000  1
  Al  Al29  1  0.66666667  0.83333333  0.50000000  1
  Al  Al30  1  0.83333333  -0.00000000  0.50000000  1
  Al  Al31  1  0.83333333  0.16666667  0.50000000  1
  Al  Al32  1  0.83333333  0.33333333  0.50000000  1
  Al  Al33  1  0.83333333  0.50000000  0.50000000  1
  Al  Al34  1  0.83333333  0.66666667  0.50000000  1
  Al  Al35  1  0.83333333  0.83333333  0.50000000  1
  Al  Al36  1  0.11111111  0.05555556  0.83333333  1
  Al  Al37  1  0.11111111  0.22222222  0.83333333  1
  Al  Al38  1  0.11111111  0.38888889  0.83333333  1
  Al  Al39  1  0.11111111  0.55555556  0.83333333  1
  Al  Al40  1  0.11111111  0.72222222  0.83333333  1
  Al  Al41  1  0.11111111  0.88888889  0.83333333  1
  Al  Al42  1  0.27777778  0.05555556  0.83333333  1
  Al  Al43  1  0.27777778  0.22222222  0.83333333  1
  Al  Al44  1  0.27777778  0.38888889  0.83333333  1
  Al  Al45  1  0.27777778  0.55555556  0.83333333  1
  Al  Al46  1  0.27777778  0.72222222  0.83333333  1
  Al  Al47  1  0.27777778  0.88888889  0.83333333  1
  Al  Al48  1  0.44444444  0.05555556  0.83333333  1
  Al  Al49  1  0.44444444  0.22222222  0.83333333  1
  Al  Al50  1  0.44444444  0.38888889  0.83333333  1
  Al  Al51  1  0.44444444  0.55555556  0.83333333  1
  Al  Al52  1  0.44444444  0.72222222  0.83333333  1
  Al  Al53  1  0.44444444  0.88888889  0.83333333  1
  Al  Al54  1  0.61111111  0.05555556  0.83333333  1
  Al  Al55  1  0.61111111  0.22222222  0.83333333  1
  Al  Al56  1  0.61111111  0.38888889  0.83333333  1
  Al  Al57  1  0.61111111  0.55555556  0.83333333  1
  Al  Al58  1  0.61111111  0.72222222  0.83333333  1
  Al  Al59  1  0.61111111  0.88888889  0.83333333  1
  Al  Al60  1  0.77777778  0.05555556  0.83333333  1
  Al  Al61  1  0.77777778  0.22222222  0.83333333  1
  Al  Al62  1  0.77777778  0.38888889  0.83333333  1
  Al  Al63  1  0.77777778  0.55555556  0.83333333  1
  Al  Al64  1  0.77777778  0.72222222  0.83333333  1
  Al  Al65  1  0.77777778  0.88888889  0.83333333  1
  Al  Al66  1  0.94444444  0.05555556  0.83333333  1
  Al  Al67  1  0.94444444  0.22222222  0.83333333  1
  Al  Al68  1  0.94444444  0.38888889  0.83333333  1
  Al  Al69  1  0.94444444  0.55555556  0.83333333  1
  Al  Al70  1  0.94444444  0.72222222  0.83333333  1
  Al  Al71  1  0.94444444  0.88888889  0.83333333  1
  Al  Al72  1  0.05555556  0.11111111  1.16666667  1
  Al  Al73  1  0.05555556  0.27777778  1.16666667  1
  Al  Al74  1  0.05555556  0.44444444  1.16666667  1
  Al  Al75  1  0.05555556  0.61111111  1.16666667  1
  Al  Al76  1  0.05555556  0.77777778  1.16666667  1
  Al  Al77  1  0.05555556  0.94444444  1.16666667  1
  Al  Al78  1  0.22222222  0.11111111  1.16666667  1
  Al  Al79  1  0.22222222  0.27777778  1.16666667  1
  Al  Al80  1  0.22222222  0.44444444  1.16666667  1
  Al  Al81  1  0.22222222  0.61111111  1.16666667  1
  Al  Al82  1  0.22222222  0.77777778  1.16666667  1
  Al  Al83  1  0.22222222  0.94444444  1.16666667  1
  Al  Al84  1  0.38888889  0.11111111  1.16666667  1
  Al  Al85  1  0.38888889  0.27777778  1.16666667  1
  Al  Al86  1  0.38888889  0.44444444  1.16666667  1
  Al  Al87  1  0.38888889  0.61111111  1.16666667  1
  Al  Al88  1  0.38888889  0.77777778  1.16666667  1
  Al  Al89  1  0.38888889  0.94444444  1.16666667  1
  Al  Al90  1  0.55555556  0.11111111  1.16666667  1
  Al  Al91  1  0.55555556  0.27777778  1.16666667  1
  Al  Al92  1  0.55555556  0.44444444  1.16666667  1
  Al  Al93  1  0.55555556  0.61111111  1.16666667  1
  Al  Al94  1  0.55555556  0.77777778  1.16666667  1
  Al  Al95  1  0.55555556  0.94444444  1.16666667  1
  Al  Al96  1  0.72222222  0.11111111  1.16666667  1
  Al  Al97  1  0.72222222  0.27777778  1.16666667  1
  Al  Al98  1  0.72222222  0.44444444  1.16666667  1
  Al  Al99  1  0.72222222  0.61111111  1.16666667  1
  Al  Al100  1  0.72222222  0.77777778  1.16666667  1
  Al  Al101  1  0.72222222  0.94444444  1.16666667  1
  Al  Al102  1  0.88888889  0.11111111  1.16666667  1
  Al  Al103  1  0.88888889  0.27777778  1.16666667  1
  Al  Al104  1  0.88888889  0.44444444  1.16666667  1
  Al  Al105  1  0.88888889  0.61111111  1.16666667  1
  Al  Al106  1  0.88888889  0.77777778  1.16666667  1
  Al  Al107  1  0.88888889  0.94444444  1.16666667  1
  Cu  Cu108  1  -0.00000000  -0.00000000  -0.00000000  1
  Cu  Cu109  1  -0.00000000  0.16666667  -0.00000000  1
  Cu  Cu110  1  -0.00000000  0.33333333  -0.00000000  1
  Cu  Cu111  1  -0.00000000  0.50000000  -0.00000000  1
  Cu  Cu112  1  -0.00000000  0.66666667  -0.00000000  1
  Cu  Cu113  1  -0.00000000  0.83333333  -0.00000000  1
  Cu  Cu114  1  0.16666667  -0.00000000  -0.00000000  1
  Cu  Cu115  1  0.16666667  0.16666667  -0.00000000  1
  Cu  Cu116  1  0.16666667  0.33333333  -0.00000000  1
  Cu  Cu117  1  0.16666667  0.50000000  -0.00000000  1
  Cu  Cu118  1  0.16666667  0.66666667  -0.00000000  1
  Cu  Cu119  1  0.16666667  0.83333333  -0.00000000  1
  Cu  Cu120  1  0.33333333  -0.00000000  -0.00000000  1
  Cu  Cu121  1  0.33333333  0.16666667  -0.00000000  1
  Cu  Cu122  1  0.33333333  0.33333333  -0.00000000  1
  Cu  Cu123  1  0.33333333  0.50000000  -0.00000000  1
  Cu  Cu124  1  0.33333333  0.66666667  -0.00000000  1
  Cu  Cu125  1  0.33333333  0.83333333  -0.00000000  1
  Cu  Cu126  1  0.50000000  -0.00000000  -0.00000000  1
  Cu  Cu127  1  0.50000000  0.16666667  -0.00000000  1
  Cu  Cu128  1  0.50000000  0.33333333  -0.00000000  1
  Cu  Cu129  1  0.50000000  0.50000000  -0.00000000  1
  Cu  Cu130  1  0.50000000  0.66666667  -0.00000000  1
  Cu  Cu131  1  0.50000000  0.83333333  -0.00000000  1
  Cu  Cu132  1  0.66666667  -0.00000000  -0.00000000  1
  Cu  Cu133  1  0.66666667  0.16666667  -0.00000000  1
  Cu  Cu134  1  0.66666667  0.33333333  -0.00000000  1
  Cu  Cu135  1  0.66666667  0.50000000  -0.00000000  1
  Cu  Cu136  1  0.66666667  0.66666667  -0.00000000  1
  Cu  Cu137  1  0.66666667  0.83333333  -0.00000000  1
  Cu  Cu138  1  0.83333333  -0.00000000  -0.00000000  1
  Cu  Cu139  1  0.83333333  0.16666667  -0.00000000  1
  Cu  Cu140  1  0.83333333  0.33333333  -0.00000000  1
  Cu  Cu141  1  0.83333333  0.50000000  -0.00000000  1
  Cu  Cu142  1  0.83333333  0.66666667  -0.00000000  1
  Cu  Cu143  1  0.83333333  0.83333333  -0.00000000  1
  Cu  Cu144  1  0.11111111  0.05555556  0.33333333  1
  Cu  Cu145  1  0.11111111  0.22222222  0.33333333  1
  Cu  Cu146  1  0.11111111  0.38888889  0.33333333  1
  Cu  Cu147  1  0.11111111  0.55555556  0.33333333  1
  Cu  Cu148  1  0.11111111  0.72222222  0.33333333  1
  Cu  Cu149  1  0.11111111  0.88888889  0.33333333  1
  Cu  Cu150  1  0.27777778  0.05555556  0.33333333  1
  Cu  Cu151  1  0.27777778  0.22222222  0.33333333  1
  Cu  Cu152  1  0.27777778  0.38888889  0.33333333  1
  Cu  Cu153  1  0.27777778  0.55555556  0.33333333  1
  Cu  Cu154  1  0.27777778  0.72222222  0.33333333  1
  Cu  Cu155  1  0.27777778  0.88888889  0.33333333  1
  Cu  Cu156  1  0.44444444  0.05555556  0.33333333  1
  Cu  Cu157  1  0.44444444  0.22222222  0.33333333  1
  Cu  Cu158  1  0.44444444  0.38888889  0.33333333  1
  Cu  Cu159  1  0.44444444  0.55555556  0.33333333  1
  Cu  Cu160  1  0.44444444  0.72222222  0.33333333  1
  Cu  Cu161  1  0.44444444  0.88888889  0.33333333  1
  Cu  Cu162  1  0.61111111  0.05555556  0.33333333  1
  Cu  Cu163  1  0.61111111  0.22222222  0.33333333  1
  Cu  Cu164  1  0.61111111  0.38888889  0.33333333  1
  Cu  Cu165  1  0.61111111  0.55555556  0.33333333  1
  Cu  Cu166  1  0.61111111  0.72222222  0.33333333  1
  Cu  Cu167  1  0.61111111  0.88888889  0.33333333  1
  Cu  Cu168  1  0.77777778  0.05555556  0.33333333  1
  Cu  Cu169  1  0.77777778  0.22222222  0.33333333  1
  Cu  Cu170  1  0.77777778  0.38888889  0.33333333  1
  Cu  Cu171  1  0.77777778  0.55555556  0.33333333  1
  Cu  Cu172  1  0.77777778  0.72222222  0.33333333  1
  Cu  Cu173  1  0.77777778  0.88888889  0.33333333  1
  Cu  Cu174  1  0.94444444  0.05555556  0.33333333  1
  Cu  Cu175  1  0.94444444  0.22222222  0.33333333  1
  Cu  Cu176  1  0.94444444  0.38888889  0.33333333  1
  Cu  Cu177  1  0.94444444  0.55555556  0.33333333  1
  Cu  Cu178  1  0.94444444  0.72222222  0.33333333  1
  Cu  Cu179  1  0.94444444  0.88888889  0.33333333  1
  Cu  Cu180  1  0.05555556  0.11111111  0.66666667  1
  Cu  Cu181  1  0.05555556  0.27777778  0.66666667  1
  Cu  Cu182  1  0.05555556  0.44444444  0.66666667  1
  Cu  Cu183  1  0.05555556  0.61111111  0.66666667  1
  Cu  Cu184  1  0.05555556  0.77777778  0.66666667  1
  Cu  Cu185  1  0.05555556  0.94444444  0.66666667  1
  Cu  Cu186  1  0.22222222  0.11111111  0.66666667  1
  Cu  Cu187  1  0.22222222  0.27777778  0.66666667  1
  Cu  Cu188  1  0.22222222  0.44444444  0.66666667  1
  Cu  Cu189  1  0.22222222  0.61111111  0.66666667  1
  Cu  Cu190  1  0.22222222  0.77777778  0.66666667  1
  Cu  Cu191  1  0.22222222  0.94444444  0.66666667  1
  Cu  Cu192  1  0.38888889  0.11111111  0.66666667  1
  Cu  Cu193  1  0.38888889  0.27777778  0.66666667  1
  Cu  Cu194  1  0.38888889  0.44444444  0.66666667  1
  Cu  Cu195  1  0.38888889  0.61111111  0.66666667  1
  Cu  Cu196  1  0.38888889  0.77777778  0.66666667  1
  Cu  Cu197  1  0.38888889  0.94444444  0.66666667  1
  Cu  Cu198  1  0.55555556  0.11111111  0.66666667  1
  Cu  Cu199  1  0.55555556  0.27777778  0.66666667  1
  Cu  Cu200  1  0.55555556  0.44444444  0.66666667  1
  Cu  Cu201  1  0.55555556  0.61111111  0.66666667  1
  Cu  Cu202  1  0.55555556  0.77777778  0.66666667  1
  Cu  Cu203  1  0.55555556  0.94444444  0.66666667  1
  Cu  Cu204  1  0.72222222  0.11111111  0.66666667  1
  Cu  Cu205  1  0.72222222  0.27777778  0.66666667  1
  Cu  Cu206  1  0.72222222  0.44444444  0.66666667  1
  Cu  Cu207  1  0.72222222  0.61111111  0.66666667  1
  Cu  Cu208  1  0.72222222  0.77777778  0.66666667  1
  Cu  Cu209  1  0.72222222  0.94444444  0.66666667  1
  Cu  Cu210  1  0.88888889  0.11111111  0.66666667  1
  Cu  Cu211  1  0.88888889  0.27777778  0.66666667  1
  Cu  Cu212  1  0.88888889  0.44444444  0.66666667  1
  Cu  Cu213  1  0.88888889  0.61111111  0.66666667  1
  Cu  Cu214  1  0.88888889  0.77777778  0.66666667  1
  Cu  Cu215  1  0.88888889  0.94444444  0.66666667  1
  O  O216  1  -0.00000000  -0.00000000  0.10923475  1
  O  O217  1  -0.00000000  0.16666667  0.10923475  1
  O  O218  1  -0.00000000  0.33333333  0.10923475  1
  O  O219  1  -0.00000000  0.50000000  0.10923475  1
  O  O220  1  -0.00000000  0.66666667  0.10923475  1
  O  O221  1  -0.00000000  0.83333333  0.10923475  1
  O  O222  1  0.16666667  -0.00000000  0.10923475  1
  O  O223  1  0.16666667  0.16666667  0.10923475  1
  O  O224  1  0.16666667  0.33333333  0.10923475  1
  O  O225  1  0.16666667  0.50000000  0.10923475  1
  O  O226  1  0.16666667  0.66666667  0.10923475  1
  O  O227  1  0.16666667  0.83333333  0.10923475  1
  O  O228  1  0.33333333  -0.00000000  0.10923475  1
  O  O229  1  0.33333333  0.16666667  0.10923475  1
  O  O230  1  0.33333333  0.33333333  0.10923475  1
  O  O231  1  0.33333333  0.50000000  0.10923475  1
  O  O232  1  0.33333333  0.66666667  0.10923475  1
  O  O233  1  0.33333333  0.83333333  0.10923475  1
  O  O234  1  0.50000000  -0.00000000  0.10923475  1
  O  O235  1  0.50000000  0.16666667  0.10923475  1
  O  O236  1  0.50000000  0.33333333  0.10923475  1
  O  O237  1  0.50000000  0.50000000  0.10923475  1
  O  O238  1  0.50000000  0.66666667  0.10923475  1
  O  O239  1  0.50000000  0.83333333  0.10923475  1
  O  O240  1  0.66666667  -0.00000000  0.10923475  1
  O  O241  1  0.66666667  0.16666667  0.10923475  1
  O  O242  1  0.66666667  0.33333333  0.10923475  1
  O  O243  1  0.66666667  0.50000000  0.10923475  1
  O  O244  1  0.66666667  0.66666667  0.10923475  1
  O  O245  1  0.66666667  0.83333333  0.10923475  1
  O  O246  1  0.83333333  -0.00000000  0.10923475  1
  O  O247  1  0.83333333  0.16666667  0.10923475  1
  O  O248  1  0.83333333  0.33333333  0.10923475  1
  O  O249  1  0.83333333  0.50000000  0.10923475  1
  O  O250  1  0.83333333  0.66666667  0.10923475  1
  O  O251  1  0.83333333  0.83333333  0.10923475  1
  O  O252  1  0.11111111  0.05555556  0.44256808  1
  O  O253  1  0.11111111  0.22222222  0.44256808  1
  O  O254  1  0.11111111  0.38888889  0.44256808  1
  O  O255  1  0.11111111  0.55555556  0.44256808  1
  O  O256  1  0.11111111  0.72222222  0.44256808  1
  O  O257  1  0.11111111  0.88888889  0.44256808  1
  O  O258  1  0.27777778  0.05555556  0.44256808  1
  O  O259  1  0.27777778  0.22222222  0.44256808  1
  O  O260  1  0.27777778  0.38888889  0.44256808  1
  O  O261  1  0.27777778  0.55555556  0.44256808  1
  O  O262  1  0.27777778  0.72222222  0.44256808  1
  O  O263  1  0.27777778  0.88888889  0.44256808  1
  O  O264  1  0.44444444  0.05555556  0.44256808  1
  O  O265  1  0.44444444  0.22222222  0.44256808  1
  O  O266  1  0.44444444  0.38888889  0.44256808  1
  O  O267  1  0.44444444  0.55555556  0.44256808  1
  O  O268  1  0.44444444  0.72222222  0.44256808  1
  O  O269  1  0.44444444  0.88888889  0.44256808  1
  O  O270  1  0.61111111  0.05555556  0.44256808  1
  O  O271  1  0.61111111  0.22222222  0.44256808  1
  O  O272  1  0.61111111  0.38888889  0.44256808  1
  O  O273  1  0.61111111  0.55555556  0.44256808  1
  O  O274  1  0.61111111  0.72222222  0.44256808  1
  O  O275  1  0.61111111  0.88888889  0.44256808  1
  O  O276  1  0.77777778  0.05555556  0.44256808  1
  O  O277  1  0.77777778  0.22222222  0.44256808  1
  O  O278  1  0.77777778  0.38888889  0.44256808  1
  O  O279  1  0.77777778  0.55555556  0.44256808  1
  O  O280  1  0.77777778  0.72222222  0.44256808  1
  O  O281  1  0.77777778  0.88888889  0.44256808  1
  O  O282  1  0.94444444  0.05555556  0.44256808  1
  O  O283  1  0.94444444  0.22222222  0.44256808  1
  O  O284  1  0.94444444  0.38888889  0.44256808  1
  O  O285  1  0.94444444  0.55555556  0.44256808  1
  O  O286  1  0.94444444  0.72222222  0.44256808  1
  O  O287  1  0.94444444  0.88888889  0.44256808  1
  O  O288  1  0.05555556  0.11111111  0.77590142  1
  O  O289  1  0.05555556  0.27777778  0.77590142  1
  O  O290  1  0.05555556  0.44444444  0.77590142  1
  O  O291  1  0.05555556  0.61111111  0.77590142  1
  O  O292  1  0.05555556  0.77777778  0.77590142  1
  O  O293  1  0.05555556  0.94444444  0.77590142  1
  O  O294  1  0.22222222  0.11111111  0.77590142  1
  O  O295  1  0.22222222  0.27777778  0.77590142  1
  O  O296  1  0.22222222  0.44444444  0.77590142  1
  O  O297  1  0.22222222  0.61111111  0.77590142  1
  O  O298  1  0.22222222  0.77777778  0.77590142  1
  O  O299  1  0.22222222  0.94444444  0.77590142  1
  O  O300  1  0.38888889  0.11111111  0.77590142  1
  O  O301  1  0.38888889  0.27777778  0.77590142  1
  O  O302  1  0.38888889  0.44444444  0.77590142  1
  O  O303  1  0.38888889  0.61111111  0.77590142  1
  O  O304  1  0.38888889  0.77777778  0.77590142  1
  O  O305  1  0.38888889  0.94444444  0.77590142  1
  O  O306  1  0.55555556  0.11111111  0.77590142  1
  O  O307  1  0.55555556  0.27777778  0.77590142  1
  O  O308  1  0.55555556  0.44444444  0.77590142  1
  O  O309  1  0.55555556  0.61111111  0.77590142  1
  O  O310  1  0.55555556  0.77777778  0.77590142  1
  O  O311  1  0.55555556  0.94444444  0.77590142  1
  O  O312  1  0.72222222  0.11111111  0.77590142  1
  O  O313  1  0.72222222  0.27777778  0.77590142  1
  O  O314  1  0.72222222  0.44444444  0.77590142  1
  O  O315  1  0.72222222  0.61111111  0.77590142  1
  O  O316  1  0.72222222  0.77777778  0.77590142  1
  O  O317  1  0.72222222  0.94444444  0.77590142  1
  O  O318  1  0.88888889  0.11111111  0.77590142  1
  O  O319  1  0.88888889  0.27777778  0.77590142  1
  O  O320  1  0.88888889  0.44444444  0.77590142  1
  O  O321  1  0.88888889  0.61111111  0.77590142  1
  O  O322  1  0.88888889  0.77777778  0.77590142  1
  O  O323  1  0.88888889  0.94444444  0.77590142  1
  O  O324  1  0.00000000  -0.00000000  0.89076525  1
  O  O325  1  -0.00000000  0.16666667  0.89076525  1
  O  O326  1  -0.00000000  0.33333333  0.89076525  1
  O  O327  1  -0.00000000  0.50000000  0.89076525  1
  O  O328  1  -0.00000000  0.66666667  0.89076525  1
  O  O329  1  -0.00000000  0.83333333  0.89076525  1
  O  O330  1  0.16666667  -0.00000000  0.89076525  1
  O  O331  1  0.16666667  0.16666667  0.89076525  1
  O  O332  1  0.16666667  0.33333333  0.89076525  1
  O  O333  1  0.16666667  0.50000000  0.89076525  1
  O  O334  1  0.16666667  0.66666667  0.89076525  1
  O  O335  1  0.16666667  0.83333333  0.89076525  1
  O  O336  1  0.33333333  -0.00000000  0.89076525  1
  O  O337  1  0.33333333  0.16666667  0.89076525  1
  O  O338  1  0.33333333  0.33333333  0.89076525  1
  O  O339  1  0.33333333  0.50000000  0.89076525  1
  O  O340  1  0.33333333  0.66666667  0.89076525  1
  O  O341  1  0.33333333  0.83333333  0.89076525  1
  O  O342  1  0.50000000  -0.00000000  0.89076525  1
  O  O343  1  0.50000000  0.16666667  0.89076525  1
  O  O344  1  0.50000000  0.33333333  0.89076525  1
  O  O345  1  0.50000000  0.50000000  0.89076525  1
  O  O346  1  0.50000000  0.66666667  0.89076525  1
  O  O347  1  0.50000000  0.83333333  0.89076525  1
  O  O348  1  0.66666667  -0.00000000  0.89076525  1
  O  O349  1  0.66666667  0.16666667  0.89076525  1
  O  O350  1  0.66666667  0.33333333  0.89076525  1
  O  O351  1  0.66666667  0.50000000  0.89076525  1
  O  O352  1  0.66666667  0.66666667  0.89076525  1
  O  O353  1  0.66666667  0.83333333  0.89076525  1
  O  O354  1  0.83333333  -0.00000000  0.89076525  1
  O  O355  1  0.83333333  0.16666667  0.89076525  1
  O  O356  1  0.83333333  0.33333333  0.89076525  1
  O  O357  1  0.83333333  0.50000000  0.89076525  1
  O  O358  1  0.83333333  0.66666667  0.89076525  1
  O  O359  1  0.83333333  0.83333333  0.89076525  1
  O  O360  1  0.11111111  0.05555556  1.22409858  1
  O  O361  1  0.11111111  0.22222222  1.22409858  1
  O  O362  1  0.11111111  0.38888889  1.22409858  1
  O  O363  1  0.11111111  0.55555556  1.22409858  1
  O  O364  1  0.11111111  0.72222222  1.22409858  1
  O  O365  1  0.11111111  0.88888889  1.22409858  1
  O  O366  1  0.27777778  0.05555556  1.22409858  1
  O  O367  1  0.27777778  0.22222222  1.22409858  1
  O  O368  1  0.27777778  0.38888889  1.22409858  1
  O  O369  1  0.27777778  0.55555556  1.22409858  1
  O  O370  1  0.27777778  0.72222222  1.22409858  1
  O  O371  1  0.27777778  0.88888889  1.22409858  1
  O  O372  1  0.44444444  0.05555556  1.22409858  1
  O  O373  1  0.44444444  0.22222222  1.22409858  1
  O  O374  1  0.44444444  0.38888889  1.22409858  1
  O  O375  1  0.44444444  0.55555556  1.22409858  1
  O  O376  1  0.44444444  0.72222222  1.22409858  1
  O  O377  1  0.44444444  0.88888889  1.22409858  1
  O  O378  1  0.61111111  0.05555556  1.22409858  1
  O  O379  1  0.61111111  0.22222222  1.22409858  1
  O  O380  1  0.61111111  0.38888889  1.22409858  1
  O  O381  1  0.61111111  0.55555556  1.22409858  1
  O  O382  1  0.61111111  0.72222222  1.22409858  1
  O  O383  1  0.61111111  0.88888889  1.22409858  1
  O  O384  1  0.77777778  0.05555556  1.22409858  1
  O  O385  1  0.77777778  0.22222222  1.22409858  1
  O  O386  1  0.77777778  0.38888889  1.22409858  1
  O  O387  1  0.77777778  0.55555556  1.22409858  1
  O  O388  1  0.77777778  0.72222222  1.22409858  1
  O  O389  1  0.77777778  0.88888889  1.22409858  1
  O  O390  1  0.94444444  0.05555556  1.22409858  1
  O  O391  1  0.94444444  0.22222222  1.22409858  1
  O  O392  1  0.94444444  0.38888889  1.22409858  1
  O  O393  1  0.94444444  0.55555556  1.22409858  1
  O  O394  1  0.94444444  0.72222222  1.22409858  1
  O  O395  1  0.94444444  0.88888889  1.22409858  1
  O  O396  1  0.05555556  0.11111111  1.55743192  1
  O  O397  1  0.05555556  0.27777778  1.55743192  1
  O  O398  1  0.05555556  0.44444444  1.55743192  1
  O  O399  1  0.05555556  0.61111111  1.55743192  1
  O  O400  1  0.05555556  0.77777778  1.55743192  1
  O  O401  1  0.05555556  0.94444444  1.55743192  1
  O  O402  1  0.22222222  0.11111111  1.55743192  1
  O  O403  1  0.22222222  0.27777778  1.55743192  1
  O  O404  1  0.22222222  0.44444444  1.55743192  1
  O  O405  1  0.22222222  0.61111111  1.55743192  1
  O  O406  1  0.22222222  0.77777778  1.55743192  1
  O  O407  1  0.22222222  0.94444444  1.55743192  1
  O  O408  1  0.38888889  0.11111111  1.55743192  1
  O  O409  1  0.38888889  0.27777778  1.55743192  1
  O  O410  1  0.38888889  0.44444444  1.55743192  1
  O  O411  1  0.38888889  0.61111111  1.55743192  1
  O  O412  1  0.38888889  0.77777778  1.55743192  1
  O  O413  1  0.38888889  0.94444444  1.55743192  1
  O  O414  1  0.55555556  0.11111111  1.55743192  1
  O  O415  1  0.55555556  0.27777778  1.55743192  1
  O  O416  1  0.55555556  0.44444444  1.55743192  1
  O  O417  1  0.55555556  0.61111111  1.55743192  1
  O  O418  1  0.55555556  0.77777778  1.55743192  1
  O  O419  1  0.55555556  0.94444444  1.55743192  1
  O  O420  1  0.72222222  0.11111111  1.55743192  1
  O  O421  1  0.72222222  0.27777778  1.55743192  1
  O  O422  1  0.72222222  0.44444444  1.55743192  1
  O  O423  1  0.72222222  0.61111111  1.55743192  1
  O  O424  1  0.72222222  0.77777778  1.55743192  1
  O  O425  1  0.72222222  0.94444444  1.55743192  1
  O  O426  1  0.88888889  0.11111111  1.55743192  1
  O  O427  1  0.88888889  0.27777778  1.55743192  1
  O  O428  1  0.88888889  0.44444444  1.55743192  1
  O  O429  1  0.88888889  0.61111111  1.55743192  1
  O  O430  1  0.88888889  0.77777778  1.55743192  1
  O  O431  1  0.88888889  0.94444444  1.55743192  1
