# generated using pymatgen
data_LiAg3O2
_symmetry_space_group_name_H-M   'P 1'
_cell_length_a   17.76556401
_cell_length_b   19.61168511
_cell_length_c   16.91987934
_cell_angle_alpha   90.00000000
_cell_angle_beta   90.00000000
_cell_angle_gamma   90.00000000
_symmetry_Int_Tables_number   1
_chemical_formula_structural   LiAg3O2
_chemical_formula_sum   'Li72 Ag216 O144'
_cell_volume   5895.09994736
_cell_formula_units_Z   72
loop_
 _symmetry_equiv_pos_site_id
 _symmetry_equiv_pos_as_xyz
  1  'x, y, z'
loop_
 _atom_site_type_symbol
 _atom_site_label
 _atom_site_symmetry_multiplicity
 _atom_site_fract_x
 _atom_site_fract_y
 _atom_site_fract_z
 _atom_site_occupancy
  Li  Li0  1  0.16666667  0.00000000  0.08333333  1
  Li  Li1  1  0.16666667  0.00000000  0.41666667  1
  Li  Li2  1  0.16666667  0.00000000  0.75000000  1
  Li  Li3  1  0.16666667  0.50000000  0.08333333  1
  Li  Li4  1  0.16666667  0.50000000  0.41666667  1
  Li  Li5  1  0.16666667  0.50000000  0.75000000  1
  Li  Li6  1  0.50000000  0.00000000  0.08333333  1
  Li  Li7  1  0.50000000  0.00000000  0.41666667  1
  Li  Li8  1  0.50000000  0.00000000  0.75000000  1
  Li  Li9  1  0.50000000  0.50000000  0.08333333  1
  Li  Li10  1  0.50000000  0.50000000  0.41666667  1
  Li  Li11  1  0.50000000  0.50000000  0.75000000  1
  Li  Li12  1  0.83333333  0.00000000  0.08333333  1
  Li  Li13  1  0.83333333  0.00000000  0.41666667  1
  Li  Li14  1  0.83333333  0.00000000  0.75000000  1
  Li  Li15  1  0.83333333  0.50000000  0.08333333  1
  Li  Li16  1  0.83333333  0.50000000  0.41666667  1
  Li  Li17  1  0.83333333  0.50000000  0.75000000  1
  Li  Li18  1  0.33333333  0.25000000  0.25000000  1
  Li  Li19  1  0.33333333  0.25000000  0.58333333  1
  Li  Li20  1  0.33333333  0.25000000  0.91666667  1
  Li  Li21  1  0.33333333  0.75000000  0.25000000  1
  Li  Li22  1  0.33333333  0.75000000  0.58333333  1
  Li  Li23  1  0.33333333  0.75000000  0.91666667  1
  Li  Li24  1  0.66666667  0.25000000  0.25000000  1
  Li  Li25  1  0.66666667  0.25000000  0.58333333  1
  Li  Li26  1  0.66666667  0.25000000  0.91666667  1
  Li  Li27  1  0.66666667  0.75000000  0.25000000  1
  Li  Li28  1  0.66666667  0.75000000  0.58333333  1
  Li  Li29  1  0.66666667  0.75000000  0.91666667  1
  Li  Li30  1  1.00000000  0.25000000  0.25000000  1
  Li  Li31  1  1.00000000  0.25000000  0.58333333  1
  Li  Li32  1  1.00000000  0.25000000  0.91666667  1
  Li  Li33  1  1.00000000  0.75000000  0.25000000  1
  Li  Li34  1  1.00000000  0.75000000  0.58333333  1
  Li  Li35  1  1.00000000  0.75000000  0.91666667  1
  Li  Li36  1  0.00000000  0.25000000  0.08333333  1
  Li  Li37  1  0.00000000  0.25000000  0.41666667  1
  Li  Li38  1  0.00000000  0.25000000  0.75000000  1
  Li  Li39  1  0.00000000  0.75000000  0.08333333  1
  Li  Li40  1  0.00000000  0.75000000  0.41666667  1
  Li  Li41  1  0.00000000  0.75000000  0.75000000  1
  Li  Li42  1  0.33333333  0.25000000  0.08333333  1
  Li  Li43  1  0.33333333  0.25000000  0.41666667  1
  Li  Li44  1  0.33333333  0.25000000  0.75000000  1
  Li  Li45  1  0.33333333  0.75000000  0.08333333  1
  Li  Li46  1  0.33333333  0.75000000  0.41666667  1
  Li  Li47  1  0.33333333  0.75000000  0.75000000  1
  Li  Li48  1  0.66666667  0.25000000  0.08333333  1
  Li  Li49  1  0.66666667  0.25000000  0.41666667  1
  Li  Li50  1  0.66666667  0.25000000  0.75000000  1
  Li  Li51  1  0.66666667  0.75000000  0.08333333  1
  Li  Li52  1  0.66666667  0.75000000  0.41666667  1
  Li  Li53  1  0.66666667  0.75000000  0.75000000  1
  Li  Li54  1  0.16666667  0.50000000  0.25000000  1
  Li  Li55  1  0.16666667  0.50000000  0.58333333  1
  Li  Li56  1  0.16666667  0.50000000  0.91666667  1
  Li  Li57  1  0.16666667  1.00000000  0.25000000  1
  Li  Li58  1  0.16666667  1.00000000  0.58333333  1
  Li  Li59  1  0.16666667  1.00000000  0.91666667  1
  Li  Li60  1  0.50000000  0.50000000  0.25000000  1
  Li  Li61  1  0.50000000  0.50000000  0.58333333  1
  Li  Li62  1  0.50000000  0.50000000  0.91666667  1
  Li  Li63  1  0.50000000  1.00000000  0.25000000  1
  Li  Li64  1  0.50000000  1.00000000  0.58333333  1
  Li  Li65  1  0.50000000  1.00000000  0.91666667  1
  Li  Li66  1  0.83333333  0.50000000  0.25000000  1
  Li  Li67  1  0.83333333  0.50000000  0.58333333  1
  Li  Li68  1  0.83333333  0.50000000  0.91666667  1
  Li  Li69  1  0.83333333  1.00000000  0.25000000  1
  Li  Li70  1  0.83333333  1.00000000  0.58333333  1
  Li  Li71  1  0.83333333  1.00000000  0.91666667  1
  Ag  Ag72  1  0.08333333  0.12500000  0.08333333  1
  Ag  Ag73  1  0.08333333  0.12500000  0.41666667  1
  Ag  Ag74  1  0.08333333  0.12500000  0.75000000  1
  Ag  Ag75  1  0.08333333  0.62500000  0.08333333  1
  Ag  Ag76  1  0.08333333  0.62500000  0.41666667  1
  Ag  Ag77  1  0.08333333  0.62500000  0.75000000  1
  Ag  Ag78  1  0.41666667  0.12500000  0.08333333  1
  Ag  Ag79  1  0.41666667  0.12500000  0.41666667  1
  Ag  Ag80  1  0.41666667  0.12500000  0.75000000  1
  Ag  Ag81  1  0.41666667  0.62500000  0.08333333  1
  Ag  Ag82  1  0.41666667  0.62500000  0.41666667  1
  Ag  Ag83  1  0.41666667  0.62500000  0.75000000  1
  Ag  Ag84  1  0.75000000  0.12500000  0.08333333  1
  Ag  Ag85  1  0.75000000  0.12500000  0.41666667  1
  Ag  Ag86  1  0.75000000  0.12500000  0.75000000  1
  Ag  Ag87  1  0.75000000  0.62500000  0.08333333  1
  Ag  Ag88  1  0.75000000  0.62500000  0.41666667  1
  Ag  Ag89  1  0.75000000  0.62500000  0.75000000  1
  Ag  Ag90  1  0.25000000  0.37500000  0.25000000  1
  Ag  Ag91  1  0.25000000  0.37500000  0.58333333  1
  Ag  Ag92  1  0.25000000  0.37500000  0.91666667  1
  Ag  Ag93  1  0.25000000  0.87500000  0.25000000  1
  Ag  Ag94  1  0.25000000  0.87500000  0.58333333  1
  Ag  Ag95  1  0.25000000  0.87500000  0.91666667  1
  Ag  Ag96  1  0.58333333  0.37500000  0.25000000  1
  Ag  Ag97  1  0.58333333  0.37500000  0.58333333  1
  Ag  Ag98  1  0.58333333  0.37500000  0.91666667  1
  Ag  Ag99  1  0.58333333  0.87500000  0.25000000  1
  Ag  Ag100  1  0.58333333  0.87500000  0.58333333  1
  Ag  Ag101  1  0.58333333  0.87500000  0.91666667  1
  Ag  Ag102  1  0.91666667  0.37500000  0.25000000  1
  Ag  Ag103  1  0.91666667  0.37500000  0.58333333  1
  Ag  Ag104  1  0.91666667  0.37500000  0.91666667  1
  Ag  Ag105  1  0.91666667  0.87500000  0.25000000  1
  Ag  Ag106  1  0.91666667  0.87500000  0.58333333  1
  Ag  Ag107  1  0.91666667  0.87500000  0.91666667  1
  Ag  Ag108  1  0.08333333  -0.12500000  0.08333333  1
  Ag  Ag109  1  0.08333333  -0.12500000  0.41666667  1
  Ag  Ag110  1  0.08333333  -0.12500000  0.75000000  1
  Ag  Ag111  1  0.08333333  0.37500000  0.08333333  1
  Ag  Ag112  1  0.08333333  0.37500000  0.41666667  1
  Ag  Ag113  1  0.08333333  0.37500000  0.75000000  1
  Ag  Ag114  1  0.41666667  -0.12500000  0.08333333  1
  Ag  Ag115  1  0.41666667  -0.12500000  0.41666667  1
  Ag  Ag116  1  0.41666667  -0.12500000  0.75000000  1
  Ag  Ag117  1  0.41666667  0.37500000  0.08333333  1
  Ag  Ag118  1  0.41666667  0.37500000  0.41666667  1
  Ag  Ag119  1  0.41666667  0.37500000  0.75000000  1
  Ag  Ag120  1  0.75000000  -0.12500000  0.08333333  1
  Ag  Ag121  1  0.75000000  -0.12500000  0.41666667  1
  Ag  Ag122  1  0.75000000  -0.12500000  0.75000000  1
  Ag  Ag123  1  0.75000000  0.37500000  0.08333333  1
  Ag  Ag124  1  0.75000000  0.37500000  0.41666667  1
  Ag  Ag125  1  0.75000000  0.37500000  0.75000000  1
  Ag  Ag126  1  0.25000000  0.12500000  0.25000000  1
  Ag  Ag127  1  0.25000000  0.12500000  0.58333333  1
  Ag  Ag128  1  0.25000000  0.12500000  0.91666667  1
  Ag  Ag129  1  0.25000000  0.62500000  0.25000000  1
  Ag  Ag130  1  0.25000000  0.62500000  0.58333333  1
  Ag  Ag131  1  0.25000000  0.62500000  0.91666667  1
  Ag  Ag132  1  0.58333333  0.12500000  0.25000000  1
  Ag  Ag133  1  0.58333333  0.12500000  0.58333333  1
  Ag  Ag134  1  0.58333333  0.12500000  0.91666667  1
  Ag  Ag135  1  0.58333333  0.62500000  0.25000000  1
  Ag  Ag136  1  0.58333333  0.62500000  0.58333333  1
  Ag  Ag137  1  0.58333333  0.62500000  0.91666667  1
  Ag  Ag138  1  0.91666667  0.12500000  0.25000000  1
  Ag  Ag139  1  0.91666667  0.12500000  0.58333333  1
  Ag  Ag140  1  0.91666667  0.12500000  0.91666667  1
  Ag  Ag141  1  0.91666667  0.62500000  0.25000000  1
  Ag  Ag142  1  0.91666667  0.62500000  0.58333333  1
  Ag  Ag143  1  0.91666667  0.62500000  0.91666667  1
  Ag  Ag144  1  0.08333333  0.12500000  -0.08333333  1
  Ag  Ag145  1  0.08333333  0.12500000  0.25000000  1
  Ag  Ag146  1  0.08333333  0.12500000  0.58333333  1
  Ag  Ag147  1  0.08333333  0.62500000  -0.08333333  1
  Ag  Ag148  1  0.08333333  0.62500000  0.25000000  1
  Ag  Ag149  1  0.08333333  0.62500000  0.58333333  1
  Ag  Ag150  1  0.41666667  0.12500000  -0.08333333  1
  Ag  Ag151  1  0.41666667  0.12500000  0.25000000  1
  Ag  Ag152  1  0.41666667  0.12500000  0.58333333  1
  Ag  Ag153  1  0.41666667  0.62500000  -0.08333333  1
  Ag  Ag154  1  0.41666667  0.62500000  0.25000000  1
  Ag  Ag155  1  0.41666667  0.62500000  0.58333333  1
  Ag  Ag156  1  0.75000000  0.12500000  -0.08333333  1
  Ag  Ag157  1  0.75000000  0.12500000  0.25000000  1
  Ag  Ag158  1  0.75000000  0.12500000  0.58333333  1
  Ag  Ag159  1  0.75000000  0.62500000  -0.08333333  1
  Ag  Ag160  1  0.75000000  0.62500000  0.25000000  1
  Ag  Ag161  1  0.75000000  0.62500000  0.58333333  1
  Ag  Ag162  1  0.25000000  0.37500000  0.08333333  1
  Ag  Ag163  1  0.25000000  0.37500000  0.41666667  1
  Ag  Ag164  1  0.25000000  0.37500000  0.75000000  1
  Ag  Ag165  1  0.25000000  0.87500000  0.08333333  1
  Ag  Ag166  1  0.25000000  0.87500000  0.41666667  1
  Ag  Ag167  1  0.25000000  0.87500000  0.75000000  1
  Ag  Ag168  1  0.58333333  0.37500000  0.08333333  1
  Ag  Ag169  1  0.58333333  0.37500000  0.41666667  1
  Ag  Ag170  1  0.58333333  0.37500000  0.75000000  1
  Ag  Ag171  1  0.58333333  0.87500000  0.08333333  1
  Ag  Ag172  1  0.58333333  0.87500000  0.41666667  1
  Ag  Ag173  1  0.58333333  0.87500000  0.75000000  1
  Ag  Ag174  1  0.91666667  0.37500000  0.08333333  1
  Ag  Ag175  1  0.91666667  0.37500000  0.41666667  1
  Ag  Ag176  1  0.91666667  0.37500000  0.75000000  1
  Ag  Ag177  1  0.91666667  0.87500000  0.08333333  1
  Ag  Ag178  1  0.91666667  0.87500000  0.41666667  1
  Ag  Ag179  1  0.91666667  0.87500000  0.75000000  1
  Ag  Ag180  1  0.00000000  0.00000000  0.16666667  1
  Ag  Ag181  1  0.00000000  0.00000000  0.50000000  1
  Ag  Ag182  1  0.00000000  0.00000000  0.83333333  1
  Ag  Ag183  1  0.00000000  0.50000000  0.16666667  1
  Ag  Ag184  1  0.00000000  0.50000000  0.50000000  1
  Ag  Ag185  1  0.00000000  0.50000000  0.83333333  1
  Ag  Ag186  1  0.33333333  0.00000000  0.16666667  1
  Ag  Ag187  1  0.33333333  0.00000000  0.50000000  1
  Ag  Ag188  1  0.33333333  0.00000000  0.83333333  1
  Ag  Ag189  1  0.33333333  0.50000000  0.16666667  1
  Ag  Ag190  1  0.33333333  0.50000000  0.50000000  1
  Ag  Ag191  1  0.33333333  0.50000000  0.83333333  1
  Ag  Ag192  1  0.66666667  0.00000000  0.16666667  1
  Ag  Ag193  1  0.66666667  0.00000000  0.50000000  1
  Ag  Ag194  1  0.66666667  0.00000000  0.83333333  1
  Ag  Ag195  1  0.66666667  0.50000000  0.16666667  1
  Ag  Ag196  1  0.66666667  0.50000000  0.50000000  1
  Ag  Ag197  1  0.66666667  0.50000000  0.83333333  1
  Ag  Ag198  1  0.16666667  0.25000000  0.33333333  1
  Ag  Ag199  1  0.16666667  0.25000000  0.66666667  1
  Ag  Ag200  1  0.16666667  0.25000000  1.00000000  1
  Ag  Ag201  1  0.16666667  0.75000000  0.33333333  1
  Ag  Ag202  1  0.16666667  0.75000000  0.66666667  1
  Ag  Ag203  1  0.16666667  0.75000000  1.00000000  1
  Ag  Ag204  1  0.50000000  0.25000000  0.33333333  1
  Ag  Ag205  1  0.50000000  0.25000000  0.66666667  1
  Ag  Ag206  1  0.50000000  0.25000000  1.00000000  1
  Ag  Ag207  1  0.50000000  0.75000000  0.33333333  1
  Ag  Ag208  1  0.50000000  0.75000000  0.66666667  1
  Ag  Ag209  1  0.50000000  0.75000000  1.00000000  1
  Ag  Ag210  1  0.83333333  0.25000000  0.33333333  1
  Ag  Ag211  1  0.83333333  0.25000000  0.66666667  1
  Ag  Ag212  1  0.83333333  0.25000000  1.00000000  1
  Ag  Ag213  1  0.83333333  0.75000000  0.33333333  1
  Ag  Ag214  1  0.83333333  0.75000000  0.66666667  1
  Ag  Ag215  1  0.83333333  0.75000000  1.00000000  1
  Ag  Ag216  1  -0.00000000  0.00000000  0.00000000  1
  Ag  Ag217  1  -0.00000000  0.00000000  0.33333333  1
  Ag  Ag218  1  -0.00000000  0.00000000  0.66666667  1
  Ag  Ag219  1  -0.00000000  0.50000000  0.00000000  1
  Ag  Ag220  1  -0.00000000  0.50000000  0.33333333  1
  Ag  Ag221  1  -0.00000000  0.50000000  0.66666667  1
  Ag  Ag222  1  0.33333333  0.00000000  0.00000000  1
  Ag  Ag223  1  0.33333333  0.00000000  0.33333333  1
  Ag  Ag224  1  0.33333333  0.00000000  0.66666667  1
  Ag  Ag225  1  0.33333333  0.50000000  0.00000000  1
  Ag  Ag226  1  0.33333333  0.50000000  0.33333333  1
  Ag  Ag227  1  0.33333333  0.50000000  0.66666667  1
  Ag  Ag228  1  0.66666667  0.00000000  0.00000000  1
  Ag  Ag229  1  0.66666667  0.00000000  0.33333333  1
  Ag  Ag230  1  0.66666667  0.00000000  0.66666667  1
  Ag  Ag231  1  0.66666667  0.50000000  0.00000000  1
  Ag  Ag232  1  0.66666667  0.50000000  0.33333333  1
  Ag  Ag233  1  0.66666667  0.50000000  0.66666667  1
  Ag  Ag234  1  0.16666667  0.25000000  0.16666667  1
  Ag  Ag235  1  0.16666667  0.25000000  0.50000000  1
  Ag  Ag236  1  0.16666667  0.25000000  0.83333333  1
  Ag  Ag237  1  0.16666667  0.75000000  0.16666667  1
  Ag  Ag238  1  0.16666667  0.75000000  0.50000000  1
  Ag  Ag239  1  0.16666667  0.75000000  0.83333333  1
  Ag  Ag240  1  0.50000000  0.25000000  0.16666667  1
  Ag  Ag241  1  0.50000000  0.25000000  0.50000000  1
  Ag  Ag242  1  0.50000000  0.25000000  0.83333333  1
  Ag  Ag243  1  0.50000000  0.75000000  0.16666667  1
  Ag  Ag244  1  0.50000000  0.75000000  0.50000000  1
  Ag  Ag245  1  0.50000000  0.75000000  0.83333333  1
  Ag  Ag246  1  0.83333333  0.25000000  0.16666667  1
  Ag  Ag247  1  0.83333333  0.25000000  0.50000000  1
  Ag  Ag248  1  0.83333333  0.25000000  0.83333333  1
  Ag  Ag249  1  0.83333333  0.75000000  0.16666667  1
  Ag  Ag250  1  0.83333333  0.75000000  0.50000000  1
  Ag  Ag251  1  0.83333333  0.75000000  0.83333333  1
  Ag  Ag252  1  -0.08333333  0.12500000  0.08333333  1
  Ag  Ag253  1  -0.08333333  0.12500000  0.41666667  1
  Ag  Ag254  1  -0.08333333  0.12500000  0.75000000  1
  Ag  Ag255  1  -0.08333333  0.62500000  0.08333333  1
  Ag  Ag256  1  -0.08333333  0.62500000  0.41666667  1
  Ag  Ag257  1  -0.08333333  0.62500000  0.75000000  1
  Ag  Ag258  1  0.25000000  0.12500000  0.08333333  1
  Ag  Ag259  1  0.25000000  0.12500000  0.41666667  1
  Ag  Ag260  1  0.25000000  0.12500000  0.75000000  1
  Ag  Ag261  1  0.25000000  0.62500000  0.08333333  1
  Ag  Ag262  1  0.25000000  0.62500000  0.41666667  1
  Ag  Ag263  1  0.25000000  0.62500000  0.75000000  1
  Ag  Ag264  1  0.58333333  0.12500000  0.08333333  1
  Ag  Ag265  1  0.58333333  0.12500000  0.41666667  1
  Ag  Ag266  1  0.58333333  0.12500000  0.75000000  1
  Ag  Ag267  1  0.58333333  0.62500000  0.08333333  1
  Ag  Ag268  1  0.58333333  0.62500000  0.41666667  1
  Ag  Ag269  1  0.58333333  0.62500000  0.75000000  1
  Ag  Ag270  1  0.08333333  0.37500000  0.25000000  1
  Ag  Ag271  1  0.08333333  0.37500000  0.58333333  1
  Ag  Ag272  1  0.08333333  0.37500000  0.91666667  1
  Ag  Ag273  1  0.08333333  0.87500000  0.25000000  1
  Ag  Ag274  1  0.08333333  0.87500000  0.58333333  1
  Ag  Ag275  1  0.08333333  0.87500000  0.91666667  1
  Ag  Ag276  1  0.41666667  0.37500000  0.25000000  1
  Ag  Ag277  1  0.41666667  0.37500000  0.58333333  1
  Ag  Ag278  1  0.41666667  0.37500000  0.91666667  1
  Ag  Ag279  1  0.41666667  0.87500000  0.25000000  1
  Ag  Ag280  1  0.41666667  0.87500000  0.58333333  1
  Ag  Ag281  1  0.41666667  0.87500000  0.91666667  1
  Ag  Ag282  1  0.75000000  0.37500000  0.25000000  1
  Ag  Ag283  1  0.75000000  0.37500000  0.58333333  1
  Ag  Ag284  1  0.75000000  0.37500000  0.91666667  1
  Ag  Ag285  1  0.75000000  0.87500000  0.25000000  1
  Ag  Ag286  1  0.75000000  0.87500000  0.58333333  1
  Ag  Ag287  1  0.75000000  0.87500000  0.91666667  1
  O  O288  1  0.10608756  0.04817592  0.00000000  1
  O  O289  1  0.10608756  0.04817592  0.33333333  1
  O  O290  1  0.10608756  0.04817592  0.66666667  1
  O  O291  1  0.10608756  0.54817592  0.00000000  1
  O  O292  1  0.10608756  0.54817592  0.33333333  1
  O  O293  1  0.10608756  0.54817592  0.66666667  1
  O  O294  1  0.43942090  0.04817592  0.00000000  1
  O  O295  1  0.43942090  0.04817592  0.33333333  1
  O  O296  1  0.43942090  0.04817592  0.66666667  1
  O  O297  1  0.43942090  0.54817592  0.00000000  1
  O  O298  1  0.43942090  0.54817592  0.33333333  1
  O  O299  1  0.43942090  0.54817592  0.66666667  1
  O  O300  1  0.77275423  0.04817592  0.00000000  1
  O  O301  1  0.77275423  0.04817592  0.33333333  1
  O  O302  1  0.77275423  0.04817592  0.66666667  1
  O  O303  1  0.77275423  0.54817592  0.00000000  1
  O  O304  1  0.77275423  0.54817592  0.33333333  1
  O  O305  1  0.77275423  0.54817592  0.66666667  1
  O  O306  1  0.27275423  0.29817592  0.16666667  1
  O  O307  1  0.27275423  0.29817592  0.50000000  1
  O  O308  1  0.27275423  0.29817592  0.83333333  1
  O  O309  1  0.27275423  0.79817592  0.16666667  1
  O  O310  1  0.27275423  0.79817592  0.50000000  1
  O  O311  1  0.27275423  0.79817592  0.83333333  1
  O  O312  1  0.60608756  0.29817592  0.16666667  1
  O  O313  1  0.60608756  0.29817592  0.50000000  1
  O  O314  1  0.60608756  0.29817592  0.83333333  1
  O  O315  1  0.60608756  0.79817592  0.16666667  1
  O  O316  1  0.60608756  0.79817592  0.50000000  1
  O  O317  1  0.60608756  0.79817592  0.83333333  1
  O  O318  1  0.93942090  0.29817592  0.16666667  1
  O  O319  1  0.93942090  0.29817592  0.50000000  1
  O  O320  1  0.93942090  0.29817592  0.83333333  1
  O  O321  1  0.93942090  0.79817592  0.16666667  1
  O  O322  1  0.93942090  0.79817592  0.50000000  1
  O  O323  1  0.93942090  0.79817592  0.83333333  1
  O  O324  1  0.06057910  0.29817592  -0.00000000  1
  O  O325  1  0.06057910  0.29817592  0.33333333  1
  O  O326  1  0.06057910  0.29817592  0.66666667  1
  O  O327  1  0.06057910  0.79817592  -0.00000000  1
  O  O328  1  0.06057910  0.79817592  0.33333333  1
  O  O329  1  0.06057910  0.79817592  0.66666667  1
  O  O330  1  0.39391244  0.29817592  -0.00000000  1
  O  O331  1  0.39391244  0.29817592  0.33333333  1
  O  O332  1  0.39391244  0.29817592  0.66666667  1
  O  O333  1  0.39391244  0.79817592  -0.00000000  1
  O  O334  1  0.39391244  0.79817592  0.33333333  1
  O  O335  1  0.39391244  0.79817592  0.66666667  1
  O  O336  1  0.72724577  0.29817592  -0.00000000  1
  O  O337  1  0.72724577  0.29817592  0.33333333  1
  O  O338  1  0.72724577  0.29817592  0.66666667  1
  O  O339  1  0.72724577  0.79817592  -0.00000000  1
  O  O340  1  0.72724577  0.79817592  0.33333333  1
  O  O341  1  0.72724577  0.79817592  0.66666667  1
  O  O342  1  0.22724577  0.54817592  0.16666667  1
  O  O343  1  0.22724577  0.54817592  0.50000000  1
  O  O344  1  0.22724577  0.54817592  0.83333333  1
  O  O345  1  0.22724577  1.04817592  0.16666667  1
  O  O346  1  0.22724577  1.04817592  0.50000000  1
  O  O347  1  0.22724577  1.04817592  0.83333333  1
  O  O348  1  0.56057910  0.54817592  0.16666667  1
  O  O349  1  0.56057910  0.54817592  0.50000000  1
  O  O350  1  0.56057910  0.54817592  0.83333333  1
  O  O351  1  0.56057910  1.04817592  0.16666667  1
  O  O352  1  0.56057910  1.04817592  0.50000000  1
  O  O353  1  0.56057910  1.04817592  0.83333333  1
  O  O354  1  0.89391244  0.54817592  0.16666667  1
  O  O355  1  0.89391244  0.54817592  0.50000000  1
  O  O356  1  0.89391244  0.54817592  0.83333333  1
  O  O357  1  0.89391244  1.04817592  0.16666667  1
  O  O358  1  0.89391244  1.04817592  0.50000000  1
  O  O359  1  0.89391244  1.04817592  0.83333333  1
  O  O360  1  0.06057910  0.20182408  0.16666667  1
  O  O361  1  0.06057910  0.20182408  0.50000000  1
  O  O362  1  0.06057910  0.20182408  0.83333333  1
  O  O363  1  0.06057910  0.70182408  0.16666667  1
  O  O364  1  0.06057910  0.70182408  0.50000000  1
  O  O365  1  0.06057910  0.70182408  0.83333333  1
  O  O366  1  0.39391244  0.20182408  0.16666667  1
  O  O367  1  0.39391244  0.20182408  0.50000000  1
  O  O368  1  0.39391244  0.20182408  0.83333333  1
  O  O369  1  0.39391244  0.70182408  0.16666667  1
  O  O370  1  0.39391244  0.70182408  0.50000000  1
  O  O371  1  0.39391244  0.70182408  0.83333333  1
  O  O372  1  0.72724577  0.20182408  0.16666667  1
  O  O373  1  0.72724577  0.20182408  0.50000000  1
  O  O374  1  0.72724577  0.20182408  0.83333333  1
  O  O375  1  0.72724577  0.70182408  0.16666667  1
  O  O376  1  0.72724577  0.70182408  0.50000000  1
  O  O377  1  0.72724577  0.70182408  0.83333333  1
  O  O378  1  0.22724577  0.45182408  0.33333333  1
  O  O379  1  0.22724577  0.45182408  0.66666667  1
  O  O380  1  0.22724577  0.45182408  1.00000000  1
  O  O381  1  0.22724577  0.95182408  0.33333333  1
  O  O382  1  0.22724577  0.95182408  0.66666667  1
  O  O383  1  0.22724577  0.95182408  1.00000000  1
  O  O384  1  0.56057910  0.45182408  0.33333333  1
  O  O385  1  0.56057910  0.45182408  0.66666667  1
  O  O386  1  0.56057910  0.45182408  1.00000000  1
  O  O387  1  0.56057910  0.95182408  0.33333333  1
  O  O388  1  0.56057910  0.95182408  0.66666667  1
  O  O389  1  0.56057910  0.95182408  1.00000000  1
  O  O390  1  0.89391244  0.45182408  0.33333333  1
  O  O391  1  0.89391244  0.45182408  0.66666667  1
  O  O392  1  0.89391244  0.45182408  1.00000000  1
  O  O393  1  0.89391244  0.95182408  0.33333333  1
  O  O394  1  0.89391244  0.95182408  0.66666667  1
  O  O395  1  0.89391244  0.95182408  1.00000000  1
  O  O396  1  0.10608756  -0.04817592  0.16666667  1
  O  O397  1  0.10608756  -0.04817592  0.50000000  1
  O  O398  1  0.10608756  -0.04817592  0.83333333  1
  O  O399  1  0.10608756  0.45182408  0.16666667  1
  O  O400  1  0.10608756  0.45182408  0.50000000  1
  O  O401  1  0.10608756  0.45182408  0.83333333  1
  O  O402  1  0.43942090  -0.04817592  0.16666667  1
  O  O403  1  0.43942090  -0.04817592  0.50000000  1
  O  O404  1  0.43942090  -0.04817592  0.83333333  1
  O  O405  1  0.43942090  0.45182408  0.16666667  1
  O  O406  1  0.43942090  0.45182408  0.50000000  1
  O  O407  1  0.43942090  0.45182408  0.83333333  1
  O  O408  1  0.77275423  -0.04817592  0.16666667  1
  O  O409  1  0.77275423  -0.04817592  0.50000000  1
  O  O410  1  0.77275423  -0.04817592  0.83333333  1
  O  O411  1  0.77275423  0.45182408  0.16666667  1
  O  O412  1  0.77275423  0.45182408  0.50000000  1
  O  O413  1  0.77275423  0.45182408  0.83333333  1
  O  O414  1  0.27275423  0.20182408  0.33333333  1
  O  O415  1  0.27275423  0.20182408  0.66666667  1
  O  O416  1  0.27275423  0.20182408  1.00000000  1
  O  O417  1  0.27275423  0.70182408  0.33333333  1
  O  O418  1  0.27275423  0.70182408  0.66666667  1
  O  O419  1  0.27275423  0.70182408  1.00000000  1
  O  O420  1  0.60608756  0.20182408  0.33333333  1
  O  O421  1  0.60608756  0.20182408  0.66666667  1
  O  O422  1  0.60608756  0.20182408  1.00000000  1
  O  O423  1  0.60608756  0.70182408  0.33333333  1
  O  O424  1  0.60608756  0.70182408  0.66666667  1
  O  O425  1  0.60608756  0.70182408  1.00000000  1
  O  O426  1  0.93942090  0.20182408  0.33333333  1
  O  O427  1  0.93942090  0.20182408  0.66666667  1
  O  O428  1  0.93942090  0.20182408  1.00000000  1
  O  O429  1  0.93942090  0.70182408  0.33333333  1
  O  O430  1  0.93942090  0.70182408  0.66666667  1
  O  O431  1  0.93942090  0.70182408  1.00000000  1
