# generated using pymatgen
data_Rb2MgO2
_symmetry_space_group_name_H-M   'P 1'
_cell_length_a   12.51154550
_cell_length_b   10.87430267
_cell_length_c   11.01054932
_cell_angle_alpha   90.00000000
_cell_angle_beta   90.00000000
_cell_angle_gamma   90.00000000
_symmetry_Int_Tables_number   1
_chemical_formula_structural   Rb2MgO2
_chemical_formula_sum   'Rb32 Mg16 O32'
_cell_volume   1498.03294096
_cell_formula_units_Z   16
loop_
 _symmetry_equiv_pos_site_id
 _symmetry_equiv_pos_as_xyz
  1  'x, y, z'
loop_
 _atom_site_type_symbol
 _atom_site_label
 _atom_site_symmetry_multiplicity
 _atom_site_fract_x
 _atom_site_fract_y
 _atom_site_fract_z
 _atom_site_occupancy
  Rb  Rb0  1  0.18126808  0.15478927  0.25000000  1
  Rb  Rb1  1  0.18126808  0.15478927  0.75000000  1
  Rb  Rb2  1  0.68126808  0.15478927  0.25000000  1
  Rb  Rb3  1  0.68126808  0.15478927  0.75000000  1
  Rb  Rb4  1  0.43126808  0.65478927  0.50000000  1
  Rb  Rb5  1  0.43126808  0.65478927  1.00000000  1
  Rb  Rb6  1  0.93126808  0.65478927  0.50000000  1
  Rb  Rb7  1  0.93126808  0.65478927  1.00000000  1
  Rb  Rb8  1  0.31873192  0.15478927  0.00000000  1
  Rb  Rb9  1  0.31873192  0.15478927  0.50000000  1
  Rb  Rb10  1  0.81873192  0.15478927  0.00000000  1
  Rb  Rb11  1  0.81873192  0.15478927  0.50000000  1
  Rb  Rb12  1  0.56873192  0.65478927  0.25000000  1
  Rb  Rb13  1  0.56873192  0.65478927  0.75000000  1
  Rb  Rb14  1  1.06873192  0.65478927  0.25000000  1
  Rb  Rb15  1  1.06873192  0.65478927  0.75000000  1
  Rb  Rb16  1  0.06873192  0.34521073  0.00000000  1
  Rb  Rb17  1  0.06873192  0.34521073  0.50000000  1
  Rb  Rb18  1  0.56873192  0.34521073  0.00000000  1
  Rb  Rb19  1  0.56873192  0.34521073  0.50000000  1
  Rb  Rb20  1  0.31873192  0.84521073  0.25000000  1
  Rb  Rb21  1  0.31873192  0.84521073  0.75000000  1
  Rb  Rb22  1  0.81873192  0.84521073  0.25000000  1
  Rb  Rb23  1  0.81873192  0.84521073  0.75000000  1
  Rb  Rb24  1  -0.06873192  0.34521073  0.25000000  1
  Rb  Rb25  1  -0.06873192  0.34521073  0.75000000  1
  Rb  Rb26  1  0.43126808  0.34521073  0.25000000  1
  Rb  Rb27  1  0.43126808  0.34521073  0.75000000  1
  Rb  Rb28  1  0.18126808  0.84521073  0.50000000  1
  Rb  Rb29  1  0.18126808  0.84521073  1.00000000  1
  Rb  Rb30  1  0.68126808  0.84521073  0.50000000  1
  Rb  Rb31  1  0.68126808  0.84521073  1.00000000  1
  Mg  Mg32  1  0.00000000  0.00000000  0.37500000  1
  Mg  Mg33  1  0.00000000  0.00000000  0.87500000  1
  Mg  Mg34  1  0.50000000  0.00000000  0.37500000  1
  Mg  Mg35  1  0.50000000  0.00000000  0.87500000  1
  Mg  Mg36  1  0.25000000  0.50000000  0.62500000  1
  Mg  Mg37  1  0.25000000  0.50000000  1.12500000  1
  Mg  Mg38  1  0.75000000  0.50000000  0.62500000  1
  Mg  Mg39  1  0.75000000  0.50000000  1.12500000  1
  Mg  Mg40  1  -0.00000000  0.00000000  0.12500000  1
  Mg  Mg41  1  -0.00000000  0.00000000  0.62500000  1
  Mg  Mg42  1  0.50000000  0.00000000  0.12500000  1
  Mg  Mg43  1  0.50000000  0.00000000  0.62500000  1
  Mg  Mg44  1  0.25000000  0.50000000  0.37500000  1
  Mg  Mg45  1  0.25000000  0.50000000  0.87500000  1
  Mg  Mg46  1  0.75000000  0.50000000  0.37500000  1
  Mg  Mg47  1  0.75000000  0.50000000  0.87500000  1
  O  O48  1  0.08598234  0.09136358  0.00000000  1
  O  O49  1  0.08598234  0.09136358  0.50000000  1
  O  O50  1  0.58598234  0.09136358  0.00000000  1
  O  O51  1  0.58598234  0.09136358  0.50000000  1
  O  O52  1  0.33598234  0.59136358  0.25000000  1
  O  O53  1  0.33598234  0.59136358  0.75000000  1
  O  O54  1  0.83598234  0.59136358  0.25000000  1
  O  O55  1  0.83598234  0.59136358  0.75000000  1
  O  O56  1  0.16401766  0.59136358  -0.00000000  1
  O  O57  1  0.16401766  0.59136358  0.50000000  1
  O  O58  1  0.66401766  0.59136358  -0.00000000  1
  O  O59  1  0.66401766  0.59136358  0.50000000  1
  O  O60  1  0.41401766  1.09136358  0.25000000  1
  O  O61  1  0.41401766  1.09136358  0.75000000  1
  O  O62  1  0.91401766  1.09136358  0.25000000  1
  O  O63  1  0.91401766  1.09136358  0.75000000  1
  O  O64  1  0.16401766  0.40863642  0.25000000  1
  O  O65  1  0.16401766  0.40863642  0.75000000  1
  O  O66  1  0.66401766  0.40863642  0.25000000  1
  O  O67  1  0.66401766  0.40863642  0.75000000  1
  O  O68  1  0.41401766  0.90863642  0.50000000  1
  O  O69  1  0.41401766  0.90863642  1.00000000  1
  O  O70  1  0.91401766  0.90863642  0.50000000  1
  O  O71  1  0.91401766  0.90863642  1.00000000  1
  O  O72  1  0.08598234  -0.09136358  0.25000000  1
  O  O73  1  0.08598234  -0.09136358  0.75000000  1
  O  O74  1  0.58598234  -0.09136358  0.25000000  1
  O  O75  1  0.58598234  -0.09136358  0.75000000  1
  O  O76  1  0.33598234  0.40863642  0.50000000  1
  O  O77  1  0.33598234  0.40863642  1.00000000  1
  O  O78  1  0.83598234  0.40863642  0.50000000  1
  O  O79  1  0.83598234  0.40863642  1.00000000  1
