# generated using pymatgen
data_SrGePbO4
_symmetry_space_group_name_H-M   'P 1'
_cell_length_a   18.04834511
_cell_length_b   14.49252262
_cell_length_c   19.94375561
_cell_angle_alpha   90.00000000
_cell_angle_beta   90.00000000
_cell_angle_gamma   90.00000000
_symmetry_Int_Tables_number   1
_chemical_formula_structural   SrGePbO4
_chemical_formula_sum   'Sr48 Ge48 Pb48 O192'
_cell_volume   5216.60937209
_cell_formula_units_Z   48
loop_
 _symmetry_equiv_pos_site_id
 _symmetry_equiv_pos_as_xyz
  1  'x, y, z'
loop_
 _atom_site_type_symbol
 _atom_site_label
 _atom_site_symmetry_multiplicity
 _atom_site_fract_x
 _atom_site_fract_y
 _atom_site_fract_z
 _atom_site_occupancy
  Sr  Sr0  1  0.15908660  0.37414587  0.39725928  1
  Sr  Sr1  1  0.15908660  0.37414587  0.89725928  1
  Sr  Sr2  1  0.15908660  0.87414587  0.39725928  1
  Sr  Sr3  1  0.15908660  0.87414587  0.89725928  1
  Sr  Sr4  1  0.49241993  0.37414587  0.39725928  1
  Sr  Sr5  1  0.49241993  0.37414587  0.89725928  1
  Sr  Sr6  1  0.49241993  0.87414587  0.39725928  1
  Sr  Sr7  1  0.49241993  0.87414587  0.89725928  1
  Sr  Sr8  1  0.82575327  0.37414587  0.39725928  1
  Sr  Sr9  1  0.82575327  0.37414587  0.89725928  1
  Sr  Sr10  1  0.82575327  0.87414587  0.39725928  1
  Sr  Sr11  1  0.82575327  0.87414587  0.89725928  1
  Sr  Sr12  1  0.32575327  0.37585413  0.10274072  1
  Sr  Sr13  1  0.32575327  0.37585413  0.60274072  1
  Sr  Sr14  1  0.32575327  0.87585413  0.10274072  1
  Sr  Sr15  1  0.32575327  0.87585413  0.60274072  1
  Sr  Sr16  1  0.65908660  0.37585413  0.10274072  1
  Sr  Sr17  1  0.65908660  0.37585413  0.60274072  1
  Sr  Sr18  1  0.65908660  0.87585413  0.10274072  1
  Sr  Sr19  1  0.65908660  0.87585413  0.60274072  1
  Sr  Sr20  1  0.99241993  0.37585413  0.10274072  1
  Sr  Sr21  1  0.99241993  0.37585413  0.60274072  1
  Sr  Sr22  1  0.99241993  0.87585413  0.10274072  1
  Sr  Sr23  1  0.99241993  0.87585413  0.60274072  1
  Sr  Sr24  1  0.00758007  0.12585413  0.14725928  1
  Sr  Sr25  1  0.00758007  0.12585413  0.64725928  1
  Sr  Sr26  1  0.00758007  0.62585413  0.14725928  1
  Sr  Sr27  1  0.00758007  0.62585413  0.64725928  1
  Sr  Sr28  1  0.34091340  0.12585413  0.14725928  1
  Sr  Sr29  1  0.34091340  0.12585413  0.64725928  1
  Sr  Sr30  1  0.34091340  0.62585413  0.14725928  1
  Sr  Sr31  1  0.34091340  0.62585413  0.64725928  1
  Sr  Sr32  1  0.67424673  0.12585413  0.14725928  1
  Sr  Sr33  1  0.67424673  0.12585413  0.64725928  1
  Sr  Sr34  1  0.67424673  0.62585413  0.14725928  1
  Sr  Sr35  1  0.67424673  0.62585413  0.64725928  1
  Sr  Sr36  1  0.17424673  0.12414587  0.35274072  1
  Sr  Sr37  1  0.17424673  0.12414587  0.85274072  1
  Sr  Sr38  1  0.17424673  0.62414587  0.35274072  1
  Sr  Sr39  1  0.17424673  0.62414587  0.85274072  1
  Sr  Sr40  1  0.50758007  0.12414587  0.35274072  1
  Sr  Sr41  1  0.50758007  0.12414587  0.85274072  1
  Sr  Sr42  1  0.50758007  0.62414587  0.35274072  1
  Sr  Sr43  1  0.50758007  0.62414587  0.85274072  1
  Sr  Sr44  1  0.84091340  0.12414587  0.35274072  1
  Sr  Sr45  1  0.84091340  0.12414587  0.85274072  1
  Sr  Sr46  1  0.84091340  0.62414587  0.35274072  1
  Sr  Sr47  1  0.84091340  0.62414587  0.85274072  1
  Ge  Ge48  1  0.17427887  0.48191017  0.04350485  1
  Ge  Ge49  1  0.17427887  0.48191017  0.54350485  1
  Ge  Ge50  1  0.17427887  0.98191017  0.04350485  1
  Ge  Ge51  1  0.17427887  0.98191017  0.54350485  1
  Ge  Ge52  1  0.50761220  0.48191017  0.04350485  1
  Ge  Ge53  1  0.50761220  0.48191017  0.54350485  1
  Ge  Ge54  1  0.50761220  0.98191017  0.04350485  1
  Ge  Ge55  1  0.50761220  0.98191017  0.54350485  1
  Ge  Ge56  1  0.84094554  0.48191017  0.04350485  1
  Ge  Ge57  1  0.84094554  0.48191017  0.54350485  1
  Ge  Ge58  1  0.84094554  0.98191017  0.04350485  1
  Ge  Ge59  1  0.84094554  0.98191017  0.54350485  1
  Ge  Ge60  1  0.00761220  0.26808983  0.45649515  1
  Ge  Ge61  1  0.00761220  0.26808983  0.95649515  1
  Ge  Ge62  1  0.00761220  0.76808983  0.45649515  1
  Ge  Ge63  1  0.00761220  0.76808983  0.95649515  1
  Ge  Ge64  1  0.34094554  0.26808983  0.45649515  1
  Ge  Ge65  1  0.34094554  0.26808983  0.95649515  1
  Ge  Ge66  1  0.34094554  0.76808983  0.45649515  1
  Ge  Ge67  1  0.34094554  0.76808983  0.95649515  1
  Ge  Ge68  1  0.67427887  0.26808983  0.45649515  1
  Ge  Ge69  1  0.67427887  0.26808983  0.95649515  1
  Ge  Ge70  1  0.67427887  0.76808983  0.45649515  1
  Ge  Ge71  1  0.67427887  0.76808983  0.95649515  1
  Ge  Ge72  1  0.32572113  0.01808983  0.29350485  1
  Ge  Ge73  1  0.32572113  0.01808983  0.79350485  1
  Ge  Ge74  1  0.32572113  0.51808983  0.29350485  1
  Ge  Ge75  1  0.32572113  0.51808983  0.79350485  1
  Ge  Ge76  1  0.65905446  0.01808983  0.29350485  1
  Ge  Ge77  1  0.65905446  0.01808983  0.79350485  1
  Ge  Ge78  1  0.65905446  0.51808983  0.29350485  1
  Ge  Ge79  1  0.65905446  0.51808983  0.79350485  1
  Ge  Ge80  1  0.99238780  0.01808983  0.29350485  1
  Ge  Ge81  1  0.99238780  0.01808983  0.79350485  1
  Ge  Ge82  1  0.99238780  0.51808983  0.29350485  1
  Ge  Ge83  1  0.99238780  0.51808983  0.79350485  1
  Ge  Ge84  1  0.15905446  0.23191017  0.20649515  1
  Ge  Ge85  1  0.15905446  0.23191017  0.70649515  1
  Ge  Ge86  1  0.15905446  0.73191017  0.20649515  1
  Ge  Ge87  1  0.15905446  0.73191017  0.70649515  1
  Ge  Ge88  1  0.49238780  0.23191017  0.20649515  1
  Ge  Ge89  1  0.49238780  0.23191017  0.70649515  1
  Ge  Ge90  1  0.49238780  0.73191017  0.20649515  1
  Ge  Ge91  1  0.49238780  0.73191017  0.70649515  1
  Ge  Ge92  1  0.82572113  0.23191017  0.20649515  1
  Ge  Ge93  1  0.82572113  0.23191017  0.70649515  1
  Ge  Ge94  1  0.82572113  0.73191017  0.20649515  1
  Ge  Ge95  1  0.82572113  0.73191017  0.70649515  1
  Pb  Pb96  1  0.14383895  0.46550688  0.20334094  1
  Pb  Pb97  1  0.14383895  0.46550688  0.70334094  1
  Pb  Pb98  1  0.14383895  0.96550688  0.20334094  1
  Pb  Pb99  1  0.14383895  0.96550688  0.70334094  1
  Pb  Pb100  1  0.47717228  0.46550688  0.20334094  1
  Pb  Pb101  1  0.47717228  0.46550688  0.70334094  1
  Pb  Pb102  1  0.47717228  0.96550688  0.20334094  1
  Pb  Pb103  1  0.47717228  0.96550688  0.70334094  1
  Pb  Pb104  1  0.81050561  0.46550688  0.20334094  1
  Pb  Pb105  1  0.81050561  0.46550688  0.70334094  1
  Pb  Pb106  1  0.81050561  0.96550688  0.20334094  1
  Pb  Pb107  1  0.81050561  0.96550688  0.70334094  1
  Pb  Pb108  1  0.31050561  0.28449312  0.29665906  1
  Pb  Pb109  1  0.31050561  0.28449312  0.79665906  1
  Pb  Pb110  1  0.31050561  0.78449312  0.29665906  1
  Pb  Pb111  1  0.31050561  0.78449312  0.79665906  1
  Pb  Pb112  1  0.64383895  0.28449312  0.29665906  1
  Pb  Pb113  1  0.64383895  0.28449312  0.79665906  1
  Pb  Pb114  1  0.64383895  0.78449312  0.29665906  1
  Pb  Pb115  1  0.64383895  0.78449312  0.79665906  1
  Pb  Pb116  1  0.97717228  0.28449312  0.29665906  1
  Pb  Pb117  1  0.97717228  0.28449312  0.79665906  1
  Pb  Pb118  1  0.97717228  0.78449312  0.29665906  1
  Pb  Pb119  1  0.97717228  0.78449312  0.79665906  1
  Pb  Pb120  1  0.02282772  0.03449312  0.45334094  1
  Pb  Pb121  1  0.02282772  0.03449312  0.95334094  1
  Pb  Pb122  1  0.02282772  0.53449312  0.45334094  1
  Pb  Pb123  1  0.02282772  0.53449312  0.95334094  1
  Pb  Pb124  1  0.35616105  0.03449312  0.45334094  1
  Pb  Pb125  1  0.35616105  0.03449312  0.95334094  1
  Pb  Pb126  1  0.35616105  0.53449312  0.45334094  1
  Pb  Pb127  1  0.35616105  0.53449312  0.95334094  1
  Pb  Pb128  1  0.68949439  0.03449312  0.45334094  1
  Pb  Pb129  1  0.68949439  0.03449312  0.95334094  1
  Pb  Pb130  1  0.68949439  0.53449312  0.45334094  1
  Pb  Pb131  1  0.68949439  0.53449312  0.95334094  1
  Pb  Pb132  1  0.18949439  0.21550688  0.04665906  1
  Pb  Pb133  1  0.18949439  0.21550688  0.54665906  1
  Pb  Pb134  1  0.18949439  0.71550688  0.04665906  1
  Pb  Pb135  1  0.18949439  0.71550688  0.54665906  1
  Pb  Pb136  1  0.52282772  0.21550688  0.04665906  1
  Pb  Pb137  1  0.52282772  0.21550688  0.54665906  1
  Pb  Pb138  1  0.52282772  0.71550688  0.04665906  1
  Pb  Pb139  1  0.52282772  0.71550688  0.54665906  1
  Pb  Pb140  1  0.85616105  0.21550688  0.04665906  1
  Pb  Pb141  1  0.85616105  0.21550688  0.54665906  1
  Pb  Pb142  1  0.85616105  0.71550688  0.04665906  1
  Pb  Pb143  1  0.85616105  0.71550688  0.54665906  1
  O  O144  1  0.15150960  0.03424875  0.46462183  1
  O  O145  1  0.15150960  0.03424875  0.96462183  1
  O  O146  1  0.15150960  0.53424875  0.46462183  1
  O  O147  1  0.15150960  0.53424875  0.96462183  1
  O  O148  1  0.48484294  0.03424875  0.46462183  1
  O  O149  1  0.48484294  0.03424875  0.96462183  1
  O  O150  1  0.48484294  0.53424875  0.46462183  1
  O  O151  1  0.48484294  0.53424875  0.96462183  1
  O  O152  1  0.81817627  0.03424875  0.46462183  1
  O  O153  1  0.81817627  0.03424875  0.96462183  1
  O  O154  1  0.81817627  0.53424875  0.46462183  1
  O  O155  1  0.81817627  0.53424875  0.96462183  1
  O  O156  1  0.31817627  0.21575125  0.03537817  1
  O  O157  1  0.31817627  0.21575125  0.53537817  1
  O  O158  1  0.31817627  0.71575125  0.03537817  1
  O  O159  1  0.31817627  0.71575125  0.53537817  1
  O  O160  1  0.65150960  0.21575125  0.03537817  1
  O  O161  1  0.65150960  0.21575125  0.53537817  1
  O  O162  1  0.65150960  0.71575125  0.03537817  1
  O  O163  1  0.65150960  0.71575125  0.53537817  1
  O  O164  1  0.98484294  0.21575125  0.03537817  1
  O  O165  1  0.98484294  0.21575125  0.53537817  1
  O  O166  1  0.98484294  0.71575125  0.03537817  1
  O  O167  1  0.98484294  0.71575125  0.53537817  1
  O  O168  1  0.01515706  0.46575125  0.21462183  1
  O  O169  1  0.01515706  0.46575125  0.71462183  1
  O  O170  1  0.01515706  0.96575125  0.21462183  1
  O  O171  1  0.01515706  0.96575125  0.71462183  1
  O  O172  1  0.34849040  0.46575125  0.21462183  1
  O  O173  1  0.34849040  0.46575125  0.71462183  1
  O  O174  1  0.34849040  0.96575125  0.21462183  1
  O  O175  1  0.34849040  0.96575125  0.71462183  1
  O  O176  1  0.68182373  0.46575125  0.21462183  1
  O  O177  1  0.68182373  0.46575125  0.71462183  1
  O  O178  1  0.68182373  0.96575125  0.21462183  1
  O  O179  1  0.68182373  0.96575125  0.71462183  1
  O  O180  1  0.18182373  0.28424875  0.28537817  1
  O  O181  1  0.18182373  0.28424875  0.78537817  1
  O  O182  1  0.18182373  0.78424875  0.28537817  1
  O  O183  1  0.18182373  0.78424875  0.78537817  1
  O  O184  1  0.51515706  0.28424875  0.28537817  1
  O  O185  1  0.51515706  0.28424875  0.78537817  1
  O  O186  1  0.51515706  0.78424875  0.28537817  1
  O  O187  1  0.51515706  0.78424875  0.78537817  1
  O  O188  1  0.84849040  0.28424875  0.28537817  1
  O  O189  1  0.84849040  0.28424875  0.78537817  1
  O  O190  1  0.84849040  0.78424875  0.28537817  1
  O  O191  1  0.84849040  0.78424875  0.78537817  1
  O  O192  1  0.24962715  0.02858338  0.08955192  1
  O  O193  1  0.24962715  0.02858338  0.58955192  1
  O  O194  1  0.24962715  0.52858338  0.08955192  1
  O  O195  1  0.24962715  0.52858338  0.58955192  1
  O  O196  1  0.58296048  0.02858338  0.08955192  1
  O  O197  1  0.58296048  0.02858338  0.58955192  1
  O  O198  1  0.58296048  0.52858338  0.08955192  1
  O  O199  1  0.58296048  0.52858338  0.58955192  1
  O  O200  1  0.91629381  0.02858338  0.08955192  1
  O  O201  1  0.91629381  0.02858338  0.58955192  1
  O  O202  1  0.91629381  0.52858338  0.08955192  1
  O  O203  1  0.91629381  0.52858338  0.58955192  1
  O  O204  1  0.08296048  0.22141662  0.41044808  1
  O  O205  1  0.08296048  0.22141662  0.91044808  1
  O  O206  1  0.08296048  0.72141662  0.41044808  1
  O  O207  1  0.08296048  0.72141662  0.91044808  1
  O  O208  1  0.41629381  0.22141662  0.41044808  1
  O  O209  1  0.41629381  0.22141662  0.91044808  1
  O  O210  1  0.41629381  0.72141662  0.41044808  1
  O  O211  1  0.41629381  0.72141662  0.91044808  1
  O  O212  1  0.74962715  0.22141662  0.41044808  1
  O  O213  1  0.74962715  0.22141662  0.91044808  1
  O  O214  1  0.74962715  0.72141662  0.41044808  1
  O  O215  1  0.74962715  0.72141662  0.91044808  1
  O  O216  1  0.25037285  0.47141662  0.33955192  1
  O  O217  1  0.25037285  0.47141662  0.83955192  1
  O  O218  1  0.25037285  0.97141662  0.33955192  1
  O  O219  1  0.25037285  0.97141662  0.83955192  1
  O  O220  1  0.58370619  0.47141662  0.33955192  1
  O  O221  1  0.58370619  0.47141662  0.83955192  1
  O  O222  1  0.58370619  0.97141662  0.33955192  1
  O  O223  1  0.58370619  0.97141662  0.83955192  1
  O  O224  1  0.91703952  0.47141662  0.33955192  1
  O  O225  1  0.91703952  0.47141662  0.83955192  1
  O  O226  1  0.91703952  0.97141662  0.33955192  1
  O  O227  1  0.91703952  0.97141662  0.83955192  1
  O  O228  1  0.08370619  0.27858338  0.16044808  1
  O  O229  1  0.08370619  0.27858338  0.66044808  1
  O  O230  1  0.08370619  0.77858338  0.16044808  1
  O  O231  1  0.08370619  0.77858338  0.66044808  1
  O  O232  1  0.41703952  0.27858338  0.16044808  1
  O  O233  1  0.41703952  0.27858338  0.66044808  1
  O  O234  1  0.41703952  0.77858338  0.16044808  1
  O  O235  1  0.41703952  0.77858338  0.66044808  1
  O  O236  1  0.75037285  0.27858338  0.16044808  1
  O  O237  1  0.75037285  0.27858338  0.66044808  1
  O  O238  1  0.75037285  0.77858338  0.16044808  1
  O  O239  1  0.75037285  0.77858338  0.66044808  1
  O  O240  1  0.20511531  0.36758441  0.02268966  1
  O  O241  1  0.20511531  0.36758441  0.52268966  1
  O  O242  1  0.20511531  0.86758441  0.02268966  1
  O  O243  1  0.20511531  0.86758441  0.52268966  1
  O  O244  1  0.53844864  0.36758441  0.02268966  1
  O  O245  1  0.53844864  0.36758441  0.52268966  1
  O  O246  1  0.53844864  0.86758441  0.02268966  1
  O  O247  1  0.53844864  0.86758441  0.52268966  1
  O  O248  1  0.87178197  0.36758441  0.02268966  1
  O  O249  1  0.87178197  0.36758441  0.52268966  1
  O  O250  1  0.87178197  0.86758441  0.02268966  1
  O  O251  1  0.87178197  0.86758441  0.52268966  1
  O  O252  1  0.03844864  0.38241559  0.47731034  1
  O  O253  1  0.03844864  0.38241559  0.97731034  1
  O  O254  1  0.03844864  0.88241559  0.47731034  1
  O  O255  1  0.03844864  0.88241559  0.97731034  1
  O  O256  1  0.37178197  0.38241559  0.47731034  1
  O  O257  1  0.37178197  0.38241559  0.97731034  1
  O  O258  1  0.37178197  0.88241559  0.47731034  1
  O  O259  1  0.37178197  0.88241559  0.97731034  1
  O  O260  1  0.70511531  0.38241559  0.47731034  1
  O  O261  1  0.70511531  0.38241559  0.97731034  1
  O  O262  1  0.70511531  0.88241559  0.47731034  1
  O  O263  1  0.70511531  0.88241559  0.97731034  1
  O  O264  1  0.29488469  0.13241559  0.27268966  1
  O  O265  1  0.29488469  0.13241559  0.77268966  1
  O  O266  1  0.29488469  0.63241559  0.27268966  1
  O  O267  1  0.29488469  0.63241559  0.77268966  1
  O  O268  1  0.62821803  0.13241559  0.27268966  1
  O  O269  1  0.62821803  0.13241559  0.77268966  1
  O  O270  1  0.62821803  0.63241559  0.27268966  1
  O  O271  1  0.62821803  0.63241559  0.77268966  1
  O  O272  1  0.96155136  0.13241559  0.27268966  1
  O  O273  1  0.96155136  0.13241559  0.77268966  1
  O  O274  1  0.96155136  0.63241559  0.27268966  1
  O  O275  1  0.96155136  0.63241559  0.77268966  1
  O  O276  1  0.12821803  0.11758441  0.22731034  1
  O  O277  1  0.12821803  0.11758441  0.72731034  1
  O  O278  1  0.12821803  0.61758441  0.22731034  1
  O  O279  1  0.12821803  0.61758441  0.72731034  1
  O  O280  1  0.46155136  0.11758441  0.22731034  1
  O  O281  1  0.46155136  0.11758441  0.72731034  1
  O  O282  1  0.46155136  0.61758441  0.22731034  1
  O  O283  1  0.46155136  0.61758441  0.72731034  1
  O  O284  1  0.79488469  0.11758441  0.22731034  1
  O  O285  1  0.79488469  0.11758441  0.72731034  1
  O  O286  1  0.79488469  0.61758441  0.22731034  1
  O  O287  1  0.79488469  0.61758441  0.72731034  1
  O  O288  1  0.09428705  0.49560613  0.09649156  1
  O  O289  1  0.09428705  0.49560613  0.59649156  1
  O  O290  1  0.09428705  0.99560613  0.09649156  1
  O  O291  1  0.09428705  0.99560613  0.59649156  1
  O  O292  1  0.42762039  0.49560613  0.09649156  1
  O  O293  1  0.42762039  0.49560613  0.59649156  1
  O  O294  1  0.42762039  0.99560613  0.09649156  1
  O  O295  1  0.42762039  0.99560613  0.59649156  1
  O  O296  1  0.76095372  0.49560613  0.09649156  1
  O  O297  1  0.76095372  0.49560613  0.59649156  1
  O  O298  1  0.76095372  0.99560613  0.09649156  1
  O  O299  1  0.76095372  0.99560613  0.59649156  1
  O  O300  1  0.26095372  0.25439387  0.40350844  1
  O  O301  1  0.26095372  0.25439387  0.90350844  1
  O  O302  1  0.26095372  0.75439387  0.40350844  1
  O  O303  1  0.26095372  0.75439387  0.90350844  1
  O  O304  1  0.59428705  0.25439387  0.40350844  1
  O  O305  1  0.59428705  0.25439387  0.90350844  1
  O  O306  1  0.59428705  0.75439387  0.40350844  1
  O  O307  1  0.59428705  0.75439387  0.90350844  1
  O  O308  1  0.92762039  0.25439387  0.40350844  1
  O  O309  1  0.92762039  0.25439387  0.90350844  1
  O  O310  1  0.92762039  0.75439387  0.40350844  1
  O  O311  1  0.92762039  0.75439387  0.90350844  1
  O  O312  1  0.07237961  0.00439387  0.34649156  1
  O  O313  1  0.07237961  0.00439387  0.84649156  1
  O  O314  1  0.07237961  0.50439387  0.34649156  1
  O  O315  1  0.07237961  0.50439387  0.84649156  1
  O  O316  1  0.40571295  0.00439387  0.34649156  1
  O  O317  1  0.40571295  0.00439387  0.84649156  1
  O  O318  1  0.40571295  0.50439387  0.34649156  1
  O  O319  1  0.40571295  0.50439387  0.84649156  1
  O  O320  1  0.73904628  0.00439387  0.34649156  1
  O  O321  1  0.73904628  0.00439387  0.84649156  1
  O  O322  1  0.73904628  0.50439387  0.34649156  1
  O  O323  1  0.73904628  0.50439387  0.84649156  1
  O  O324  1  0.23904628  0.24560613  0.15350844  1
  O  O325  1  0.23904628  0.24560613  0.65350844  1
  O  O326  1  0.23904628  0.74560613  0.15350844  1
  O  O327  1  0.23904628  0.74560613  0.65350844  1
  O  O328  1  0.57237961  0.24560613  0.15350844  1
  O  O329  1  0.57237961  0.24560613  0.65350844  1
  O  O330  1  0.57237961  0.74560613  0.15350844  1
  O  O331  1  0.57237961  0.74560613  0.65350844  1
  O  O332  1  0.90571295  0.24560613  0.15350844  1
  O  O333  1  0.90571295  0.24560613  0.65350844  1
  O  O334  1  0.90571295  0.74560613  0.15350844  1
  O  O335  1  0.90571295  0.74560613  0.65350844  1
