# generated using pymatgen
data_NaYO2
_symmetry_space_group_name_H-M   'P 1'
_cell_length_a   13.14027358
_cell_length_b   13.10796444
_cell_length_c   11.78816776
_cell_angle_alpha   90.00000000
_cell_angle_beta   122.93810368
_cell_angle_gamma   90.00000000
_symmetry_Int_Tables_number   1
_chemical_formula_structural   NaYO2
_chemical_formula_sum   'Na32 Y32 O64'
_cell_volume   1704.04748116
_cell_formula_units_Z   32
loop_
 _symmetry_equiv_pos_site_id
 _symmetry_equiv_pos_as_xyz
  1  'x, y, z'
loop_
 _atom_site_type_symbol
 _atom_site_label
 _atom_site_symmetry_multiplicity
 _atom_site_fract_x
 _atom_site_fract_y
 _atom_site_fract_z
 _atom_site_occupancy
  Na  Na0  1  0.25000000  -0.31929664  0.12500000  1
  Na  Na1  1  0.25000000  -0.31929664  0.62500000  1
  Na  Na2  1  0.75000000  -0.31929664  0.12500000  1
  Na  Na3  1  0.75000000  -0.31929664  0.62500000  1
  Na  Na4  1  0.50000000  0.18070336  0.12500000  1
  Na  Na5  1  0.50000000  0.18070336  0.62500000  1
  Na  Na6  1  1.00000000  0.18070336  0.12500000  1
  Na  Na7  1  1.00000000  0.18070336  0.62500000  1
  Na  Na8  1  0.25000000  0.44393988  0.12500000  1
  Na  Na9  1  0.25000000  0.44393988  0.62500000  1
  Na  Na10  1  0.75000000  0.44393988  0.12500000  1
  Na  Na11  1  0.75000000  0.44393988  0.62500000  1
  Na  Na12  1  0.50000000  0.94393988  0.12500000  1
  Na  Na13  1  0.50000000  0.94393988  0.62500000  1
  Na  Na14  1  1.00000000  0.94393988  0.12500000  1
  Na  Na15  1  1.00000000  0.94393988  0.62500000  1
  Na  Na16  1  0.25000000  0.31929664  0.37500000  1
  Na  Na17  1  0.25000000  0.31929664  0.87500000  1
  Na  Na18  1  0.75000000  0.31929664  0.37500000  1
  Na  Na19  1  0.75000000  0.31929664  0.87500000  1
  Na  Na20  1  0.50000000  0.81929664  0.37500000  1
  Na  Na21  1  0.50000000  0.81929664  0.87500000  1
  Na  Na22  1  1.00000000  0.81929664  0.37500000  1
  Na  Na23  1  1.00000000  0.81929664  0.87500000  1
  Na  Na24  1  0.25000000  -0.44393988  0.37500000  1
  Na  Na25  1  0.25000000  -0.44393988  0.87500000  1
  Na  Na26  1  0.75000000  -0.44393988  0.37500000  1
  Na  Na27  1  0.75000000  -0.44393988  0.87500000  1
  Na  Na28  1  0.50000000  0.05606012  0.37500000  1
  Na  Na29  1  0.50000000  0.05606012  0.87500000  1
  Na  Na30  1  1.00000000  0.05606012  0.37500000  1
  Na  Na31  1  1.00000000  0.05606012  0.87500000  1
  Y  Y32  1  0.25000000  0.06711552  0.37500000  1
  Y  Y33  1  0.25000000  0.06711552  0.87500000  1
  Y  Y34  1  0.75000000  0.06711552  0.37500000  1
  Y  Y35  1  0.75000000  0.06711552  0.87500000  1
  Y  Y36  1  0.50000000  0.56711552  0.37500000  1
  Y  Y37  1  0.50000000  0.56711552  0.87500000  1
  Y  Y38  1  1.00000000  0.56711552  0.37500000  1
  Y  Y39  1  1.00000000  0.56711552  0.87500000  1
  Y  Y40  1  0.25000000  -0.06711552  0.12500000  1
  Y  Y41  1  0.25000000  -0.06711552  0.62500000  1
  Y  Y42  1  0.75000000  -0.06711552  0.12500000  1
  Y  Y43  1  0.75000000  -0.06711552  0.62500000  1
  Y  Y44  1  0.50000000  0.43288448  0.12500000  1
  Y  Y45  1  0.50000000  0.43288448  0.62500000  1
  Y  Y46  1  1.00000000  0.43288448  0.12500000  1
  Y  Y47  1  1.00000000  0.43288448  0.62500000  1
  Y  Y48  1  0.25000000  -0.19297166  0.37500000  1
  Y  Y49  1  0.25000000  -0.19297166  0.87500000  1
  Y  Y50  1  0.75000000  -0.19297166  0.37500000  1
  Y  Y51  1  0.75000000  -0.19297166  0.87500000  1
  Y  Y52  1  0.50000000  0.30702834  0.37500000  1
  Y  Y53  1  0.50000000  0.30702834  0.87500000  1
  Y  Y54  1  1.00000000  0.30702834  0.37500000  1
  Y  Y55  1  1.00000000  0.30702834  0.87500000  1
  Y  Y56  1  0.25000000  0.19297166  0.12500000  1
  Y  Y57  1  0.25000000  0.19297166  0.62500000  1
  Y  Y58  1  0.75000000  0.19297166  0.12500000  1
  Y  Y59  1  0.75000000  0.19297166  0.62500000  1
  Y  Y60  1  0.50000000  0.69297166  0.12500000  1
  Y  Y61  1  0.50000000  0.69297166  0.62500000  1
  Y  Y62  1  1.00000000  0.69297166  0.12500000  1
  Y  Y63  1  1.00000000  0.69297166  0.62500000  1
  O  O64  1  0.14585248  0.06335621  0.14577673  1
  O  O65  1  0.14585248  0.06335621  0.64577673  1
  O  O66  1  0.64585248  0.06335621  0.14577673  1
  O  O67  1  0.64585248  0.06335621  0.64577673  1
  O  O68  1  0.39585248  0.56335621  0.14577673  1
  O  O69  1  0.39585248  0.56335621  0.64577673  1
  O  O70  1  0.89585248  0.56335621  0.14577673  1
  O  O71  1  0.89585248  0.56335621  0.64577673  1
  O  O72  1  0.35414752  0.06335621  0.10422327  1
  O  O73  1  0.35414752  0.06335621  0.60422327  1
  O  O74  1  0.85414752  0.06335621  0.10422327  1
  O  O75  1  0.85414752  0.06335621  0.60422327  1
  O  O76  1  0.60414752  0.56335621  0.10422327  1
  O  O77  1  0.60414752  0.56335621  0.60422327  1
  O  O78  1  1.10414752  0.56335621  0.10422327  1
  O  O79  1  1.10414752  0.56335621  0.60422327  1
  O  O80  1  0.35414752  -0.06335621  0.35422327  1
  O  O81  1  0.35414752  -0.06335621  0.85422327  1
  O  O82  1  0.85414752  -0.06335621  0.35422327  1
  O  O83  1  0.85414752  -0.06335621  0.85422327  1
  O  O84  1  0.60414752  0.43664379  0.35422327  1
  O  O85  1  0.60414752  0.43664379  0.85422327  1
  O  O86  1  1.10414752  0.43664379  0.35422327  1
  O  O87  1  1.10414752  0.43664379  0.85422327  1
  O  O88  1  0.14585248  -0.06335621  0.39577673  1
  O  O89  1  0.14585248  -0.06335621  0.89577673  1
  O  O90  1  0.64585248  -0.06335621  0.39577673  1
  O  O91  1  0.64585248  -0.06335621  0.89577673  1
  O  O92  1  0.39585248  0.43664379  0.39577673  1
  O  O93  1  0.39585248  0.43664379  0.89577673  1
  O  O94  1  0.89585248  0.43664379  0.39577673  1
  O  O95  1  0.89585248  0.43664379  0.89577673  1
  O  O96  1  0.13525944  -0.18811234  0.14512629  1
  O  O97  1  0.13525944  -0.18811234  0.64512629  1
  O  O98  1  0.63525944  -0.18811234  0.14512629  1
  O  O99  1  0.63525944  -0.18811234  0.64512629  1
  O  O100  1  0.38525944  0.31188766  0.14512629  1
  O  O101  1  0.38525944  0.31188766  0.64512629  1
  O  O102  1  0.88525944  0.31188766  0.14512629  1
  O  O103  1  0.88525944  0.31188766  0.64512629  1
  O  O104  1  0.13525944  0.18811234  0.39512629  1
  O  O105  1  0.13525944  0.18811234  0.89512629  1
  O  O106  1  0.63525944  0.18811234  0.39512629  1
  O  O107  1  0.63525944  0.18811234  0.89512629  1
  O  O108  1  0.38525944  0.68811234  0.39512629  1
  O  O109  1  0.38525944  0.68811234  0.89512629  1
  O  O110  1  0.88525944  0.68811234  0.39512629  1
  O  O111  1  0.88525944  0.68811234  0.89512629  1
  O  O112  1  0.36474056  0.18811234  0.35487371  1
  O  O113  1  0.36474056  0.18811234  0.85487371  1
  O  O114  1  0.86474056  0.18811234  0.35487371  1
  O  O115  1  0.86474056  0.18811234  0.85487371  1
  O  O116  1  0.61474056  0.68811234  0.35487371  1
  O  O117  1  0.61474056  0.68811234  0.85487371  1
  O  O118  1  1.11474056  0.68811234  0.35487371  1
  O  O119  1  1.11474056  0.68811234  0.85487371  1
  O  O120  1  0.36474056  -0.18811234  0.10487371  1
  O  O121  1  0.36474056  -0.18811234  0.60487371  1
  O  O122  1  0.86474056  -0.18811234  0.10487371  1
  O  O123  1  0.86474056  -0.18811234  0.60487371  1
  O  O124  1  0.61474056  0.31188766  0.10487371  1
  O  O125  1  0.61474056  0.31188766  0.60487371  1
  O  O126  1  1.11474056  0.31188766  0.10487371  1
  O  O127  1  1.11474056  0.31188766  0.60487371  1
