# generated using pymatgen
data_K2ZrGe2O7
_symmetry_space_group_name_H-M   'P 1'
_cell_length_a   10.05383471
_cell_length_b   11.19856153
_cell_length_c   13.00092536
_cell_angle_alpha   90.00000000
_cell_angle_beta   104.98324260
_cell_angle_gamma   90.00000000
_symmetry_Int_Tables_number   1
_chemical_formula_structural   K2ZrGe2O7
_chemical_formula_sum   'K16 Zr8 Ge16 O56'
_cell_volume   1413.98902742
_cell_formula_units_Z   8
loop_
 _symmetry_equiv_pos_site_id
 _symmetry_equiv_pos_as_xyz
  1  'x, y, z'
loop_
 _atom_site_type_symbol
 _atom_site_label
 _atom_site_symmetry_multiplicity
 _atom_site_fract_x
 _atom_site_fract_y
 _atom_site_fract_z
 _atom_site_occupancy
  K  K0  1  0.64862257  0.14604542  0.17871880  1
  K  K1  1  0.64862257  0.64604542  0.17871880  1
  K  K2  1  1.14862257  0.39604542  0.17871880  1
  K  K3  1  1.14862257  0.89604542  0.17871880  1
  K  K4  1  0.35137743  0.14604542  0.32128120  1
  K  K5  1  0.35137743  0.64604542  0.32128120  1
  K  K6  1  0.85137743  0.39604542  0.32128120  1
  K  K7  1  0.85137743  0.89604542  0.32128120  1
  K  K8  1  0.35137743  -0.14604542  0.82128120  1
  K  K9  1  0.35137743  0.35395458  0.82128120  1
  K  K10  1  0.85137743  0.10395458  0.82128120  1
  K  K11  1  0.85137743  0.60395458  0.82128120  1
  K  K12  1  0.64862257  -0.14604542  0.67871880  1
  K  K13  1  0.64862257  0.35395458  0.67871880  1
  K  K14  1  1.14862257  0.10395458  0.67871880  1
  K  K15  1  1.14862257  0.60395458  0.67871880  1
  Zr  Zr16  1  0.25000000  -0.12500000  0.50000000  1
  Zr  Zr17  1  0.25000000  0.37500000  0.50000000  1
  Zr  Zr18  1  0.75000000  0.12500000  0.50000000  1
  Zr  Zr19  1  0.75000000  0.62500000  0.50000000  1
  Zr  Zr20  1  0.25000000  0.12500000  0.00000000  1
  Zr  Zr21  1  0.25000000  0.62500000  0.00000000  1
  Zr  Zr22  1  0.75000000  0.37500000  0.00000000  1
  Zr  Zr23  1  0.75000000  0.87500000  0.00000000  1
  Ge  Ge24  1  0.46206719  0.10845495  0.62084579  1
  Ge  Ge25  1  0.46206719  0.60845495  0.62084579  1
  Ge  Ge26  1  0.96206719  0.35845495  0.62084579  1
  Ge  Ge27  1  0.96206719  0.85845495  0.62084579  1
  Ge  Ge28  1  0.46206719  -0.10845495  0.12084579  1
  Ge  Ge29  1  0.46206719  0.39154505  0.12084579  1
  Ge  Ge30  1  0.96206719  0.14154505  0.12084579  1
  Ge  Ge31  1  0.96206719  0.64154505  0.12084579  1
  Ge  Ge32  1  0.53793281  -0.10845495  0.37915421  1
  Ge  Ge33  1  0.53793281  0.39154505  0.37915421  1
  Ge  Ge34  1  1.03793281  0.14154505  0.37915421  1
  Ge  Ge35  1  1.03793281  0.64154505  0.37915421  1
  Ge  Ge36  1  0.53793281  0.10845495  0.87915421  1
  Ge  Ge37  1  0.53793281  0.60845495  0.87915421  1
  Ge  Ge38  1  1.03793281  0.35845495  0.87915421  1
  Ge  Ge39  1  1.03793281  0.85845495  0.87915421  1
  O  O40  1  0.13375565  -0.02845414  0.95978641  1
  O  O41  1  0.13375565  0.47154586  0.95978641  1
  O  O42  1  0.63375565  0.22154586  0.95978641  1
  O  O43  1  0.63375565  0.72154586  0.95978641  1
  O  O44  1  0.62488411  -0.02752525  0.87071182  1
  O  O45  1  0.62488411  0.47247475  0.87071182  1
  O  O46  1  1.12488411  0.22247475  0.87071182  1
  O  O47  1  1.12488411  0.72247475  0.87071182  1
  O  O48  1  0.62488411  0.02752525  0.37071182  1
  O  O49  1  0.62488411  0.52752525  0.37071182  1
  O  O50  1  1.12488411  0.27752525  0.37071182  1
  O  O51  1  1.12488411  0.77752525  0.37071182  1
  O  O52  1  0.37511589  0.02752525  0.12928818  1
  O  O53  1  0.37511589  0.52752525  0.12928818  1
  O  O54  1  0.87511589  0.27752525  0.12928818  1
  O  O55  1  0.87511589  0.77752525  0.12928818  1
  O  O56  1  0.50000000  0.18177329  0.75000000  1
  O  O57  1  0.50000000  0.68177329  0.75000000  1
  O  O58  1  1.00000000  0.43177329  0.75000000  1
  O  O59  1  1.00000000  0.93177329  0.75000000  1
  O  O60  1  0.50000000  -0.18177329  0.25000000  1
  O  O61  1  0.50000000  0.31822671  0.25000000  1
  O  O62  1  1.00000000  0.06822671  0.25000000  1
  O  O63  1  1.00000000  0.56822671  0.25000000  1
  O  O64  1  0.62626035  -0.07751504  0.09978616  1
  O  O65  1  0.62626035  0.42248496  0.09978616  1
  O  O66  1  1.12626035  0.17248496  0.09978616  1
  O  O67  1  1.12626035  0.67248496  0.09978616  1
  O  O68  1  0.37373965  -0.07751504  0.40021384  1
  O  O69  1  0.37373965  0.42248496  0.40021384  1
  O  O70  1  0.87373965  0.17248496  0.40021384  1
  O  O71  1  0.87373965  0.67248496  0.40021384  1
  O  O72  1  0.86624435  -0.02845414  0.54021359  1
  O  O73  1  0.86624435  0.47154586  0.54021359  1
  O  O74  1  1.36624435  0.22154586  0.54021359  1
  O  O75  1  1.36624435  0.72154586  0.54021359  1
  O  O76  1  0.62626035  0.07751504  0.59978616  1
  O  O77  1  0.62626035  0.57751504  0.59978616  1
  O  O78  1  1.12626035  0.32751504  0.59978616  1
  O  O79  1  1.12626035  0.82751504  0.59978616  1
  O  O80  1  0.86624435  0.02845414  0.04021359  1
  O  O81  1  0.86624435  0.52845414  0.04021359  1
  O  O82  1  1.36624435  0.27845414  0.04021359  1
  O  O83  1  1.36624435  0.77845414  0.04021359  1
  O  O84  1  0.13375565  0.02845414  0.45978641  1
  O  O85  1  0.13375565  0.52845414  0.45978641  1
  O  O86  1  0.63375565  0.27845414  0.45978641  1
  O  O87  1  0.63375565  0.77845414  0.45978641  1
  O  O88  1  0.37373965  0.07751504  0.90021384  1
  O  O89  1  0.37373965  0.57751504  0.90021384  1
  O  O90  1  0.87373965  0.32751504  0.90021384  1
  O  O91  1  0.87373965  0.82751504  0.90021384  1
  O  O92  1  0.37511589  -0.02752525  0.62928818  1
  O  O93  1  0.37511589  0.47247475  0.62928818  1
  O  O94  1  0.87511589  0.22247475  0.62928818  1
  O  O95  1  0.87511589  0.72247475  0.62928818  1
