# generated using pymatgen
data_Na3Ca2BiO6
_symmetry_space_group_name_H-M   'P 1'
_cell_length_a   13.33605889
_cell_length_b   19.11890272
_cell_length_c   19.86374114
_cell_angle_alpha   90.00000000
_cell_angle_beta   90.00000000
_cell_angle_gamma   90.00000000
_symmetry_Int_Tables_number   1
_chemical_formula_structural   Na3Ca2BiO6
_chemical_formula_sum   'Na96 Ca64 Bi32 O192'
_cell_volume   5064.67421943
_cell_formula_units_Z   32
loop_
 _symmetry_equiv_pos_site_id
 _symmetry_equiv_pos_as_xyz
  1  'x, y, z'
loop_
 _atom_site_type_symbol
 _atom_site_label
 _atom_site_symmetry_multiplicity
 _atom_site_fract_x
 _atom_site_fract_y
 _atom_site_fract_z
 _atom_site_occupancy
  Na  Na0  1  0.37500000  0.37500000  0.58659310  1
  Na  Na1  1  0.37500000  0.87500000  0.58659310  1
  Na  Na2  1  0.87500000  0.37500000  0.58659310  1
  Na  Na3  1  0.87500000  0.87500000  0.58659310  1
  Na  Na4  1  0.62500000  0.62500000  0.58659310  1
  Na  Na5  1  0.62500000  1.12500000  0.58659310  1
  Na  Na6  1  1.12500000  0.62500000  0.58659310  1
  Na  Na7  1  1.12500000  1.12500000  0.58659310  1
  Na  Na8  1  0.62500000  0.37500000  1.08659310  1
  Na  Na9  1  0.62500000  0.87500000  1.08659310  1
  Na  Na10  1  1.12500000  0.37500000  1.08659310  1
  Na  Na11  1  1.12500000  0.87500000  1.08659310  1
  Na  Na12  1  0.37500000  0.62500000  1.08659310  1
  Na  Na13  1  0.37500000  1.12500000  1.08659310  1
  Na  Na14  1  0.87500000  0.62500000  1.08659310  1
  Na  Na15  1  0.87500000  1.12500000  1.08659310  1
  Na  Na16  1  0.37500000  0.37500000  0.91340690  1
  Na  Na17  1  0.37500000  0.87500000  0.91340690  1
  Na  Na18  1  0.87500000  0.37500000  0.91340690  1
  Na  Na19  1  0.87500000  0.87500000  0.91340690  1
  Na  Na20  1  0.62500000  0.62500000  0.91340690  1
  Na  Na21  1  0.62500000  1.12500000  0.91340690  1
  Na  Na22  1  1.12500000  0.62500000  0.91340690  1
  Na  Na23  1  1.12500000  1.12500000  0.91340690  1
  Na  Na24  1  0.62500000  0.37500000  1.41340690  1
  Na  Na25  1  0.62500000  0.87500000  1.41340690  1
  Na  Na26  1  1.12500000  0.37500000  1.41340690  1
  Na  Na27  1  1.12500000  0.87500000  1.41340690  1
  Na  Na28  1  0.37500000  0.62500000  1.41340690  1
  Na  Na29  1  0.37500000  1.12500000  1.41340690  1
  Na  Na30  1  0.87500000  0.62500000  1.41340690  1
  Na  Na31  1  0.87500000  1.12500000  1.41340690  1
  Na  Na32  1  0.25000000  0.25000000  0.66340690  1
  Na  Na33  1  0.25000000  0.75000000  0.66340690  1
  Na  Na34  1  0.75000000  0.25000000  0.66340690  1
  Na  Na35  1  0.75000000  0.75000000  0.66340690  1
  Na  Na36  1  0.50000000  0.50000000  0.66340690  1
  Na  Na37  1  0.50000000  1.00000000  0.66340690  1
  Na  Na38  1  1.00000000  0.50000000  0.66340690  1
  Na  Na39  1  1.00000000  1.00000000  0.66340690  1
  Na  Na40  1  0.50000000  0.25000000  1.16340690  1
  Na  Na41  1  0.50000000  0.75000000  1.16340690  1
  Na  Na42  1  1.00000000  0.25000000  1.16340690  1
  Na  Na43  1  1.00000000  0.75000000  1.16340690  1
  Na  Na44  1  0.25000000  0.50000000  1.16340690  1
  Na  Na45  1  0.25000000  1.00000000  1.16340690  1
  Na  Na46  1  0.75000000  0.50000000  1.16340690  1
  Na  Na47  1  0.75000000  1.00000000  1.16340690  1
  Na  Na48  1  0.25000000  0.25000000  0.33659310  1
  Na  Na49  1  0.25000000  0.75000000  0.33659310  1
  Na  Na50  1  0.75000000  0.25000000  0.33659310  1
  Na  Na51  1  0.75000000  0.75000000  0.33659310  1
  Na  Na52  1  0.50000000  0.50000000  0.33659310  1
  Na  Na53  1  0.50000000  1.00000000  0.33659310  1
  Na  Na54  1  1.00000000  0.50000000  0.33659310  1
  Na  Na55  1  1.00000000  1.00000000  0.33659310  1
  Na  Na56  1  0.50000000  0.25000000  0.83659310  1
  Na  Na57  1  0.50000000  0.75000000  0.83659310  1
  Na  Na58  1  1.00000000  0.25000000  0.83659310  1
  Na  Na59  1  1.00000000  0.75000000  0.83659310  1
  Na  Na60  1  0.25000000  0.50000000  0.83659310  1
  Na  Na61  1  0.25000000  1.00000000  0.83659310  1
  Na  Na62  1  0.75000000  0.50000000  0.83659310  1
  Na  Na63  1  0.75000000  1.00000000  0.83659310  1
  Na  Na64  1  0.25000000  0.25000000  0.50000000  1
  Na  Na65  1  0.25000000  0.75000000  0.50000000  1
  Na  Na66  1  0.75000000  0.25000000  0.50000000  1
  Na  Na67  1  0.75000000  0.75000000  0.50000000  1
  Na  Na68  1  0.50000000  0.50000000  0.50000000  1
  Na  Na69  1  0.50000000  1.00000000  0.50000000  1
  Na  Na70  1  1.00000000  0.50000000  0.50000000  1
  Na  Na71  1  1.00000000  1.00000000  0.50000000  1
  Na  Na72  1  0.50000000  0.25000000  1.00000000  1
  Na  Na73  1  0.50000000  0.75000000  1.00000000  1
  Na  Na74  1  1.00000000  0.25000000  1.00000000  1
  Na  Na75  1  1.00000000  0.75000000  1.00000000  1
  Na  Na76  1  0.25000000  0.50000000  1.00000000  1
  Na  Na77  1  0.25000000  1.00000000  1.00000000  1
  Na  Na78  1  0.75000000  0.50000000  1.00000000  1
  Na  Na79  1  0.75000000  1.00000000  1.00000000  1
  Na  Na80  1  0.37500000  0.37500000  0.75000000  1
  Na  Na81  1  0.37500000  0.87500000  0.75000000  1
  Na  Na82  1  0.87500000  0.37500000  0.75000000  1
  Na  Na83  1  0.87500000  0.87500000  0.75000000  1
  Na  Na84  1  0.62500000  0.62500000  0.75000000  1
  Na  Na85  1  0.62500000  1.12500000  0.75000000  1
  Na  Na86  1  1.12500000  0.62500000  0.75000000  1
  Na  Na87  1  1.12500000  1.12500000  0.75000000  1
  Na  Na88  1  0.62500000  0.37500000  1.25000000  1
  Na  Na89  1  0.62500000  0.87500000  1.25000000  1
  Na  Na90  1  1.12500000  0.37500000  1.25000000  1
  Na  Na91  1  1.12500000  0.87500000  1.25000000  1
  Na  Na92  1  0.37500000  0.62500000  1.25000000  1
  Na  Na93  1  0.37500000  1.12500000  1.25000000  1
  Na  Na94  1  0.87500000  0.62500000  1.25000000  1
  Na  Na95  1  0.87500000  1.12500000  1.25000000  1
  Ca  Ca96  1  0.12500000  0.12500000  0.08060519  1
  Ca  Ca97  1  0.12500000  0.62500000  0.08060519  1
  Ca  Ca98  1  0.62500000  0.12500000  0.08060519  1
  Ca  Ca99  1  0.62500000  0.62500000  0.08060519  1
  Ca  Ca100  1  0.37500000  0.37500000  0.08060519  1
  Ca  Ca101  1  0.37500000  0.87500000  0.08060519  1
  Ca  Ca102  1  0.87500000  0.37500000  0.08060519  1
  Ca  Ca103  1  0.87500000  0.87500000  0.08060519  1
  Ca  Ca104  1  0.37500000  0.12500000  0.58060519  1
  Ca  Ca105  1  0.37500000  0.62500000  0.58060519  1
  Ca  Ca106  1  0.87500000  0.12500000  0.58060519  1
  Ca  Ca107  1  0.87500000  0.62500000  0.58060519  1
  Ca  Ca108  1  0.12500000  0.37500000  0.58060519  1
  Ca  Ca109  1  0.12500000  0.87500000  0.58060519  1
  Ca  Ca110  1  0.62500000  0.37500000  0.58060519  1
  Ca  Ca111  1  0.62500000  0.87500000  0.58060519  1
  Ca  Ca112  1  0.25000000  0.25000000  0.83060519  1
  Ca  Ca113  1  0.25000000  0.75000000  0.83060519  1
  Ca  Ca114  1  0.75000000  0.25000000  0.83060519  1
  Ca  Ca115  1  0.75000000  0.75000000  0.83060519  1
  Ca  Ca116  1  0.50000000  0.50000000  0.83060519  1
  Ca  Ca117  1  0.50000000  1.00000000  0.83060519  1
  Ca  Ca118  1  1.00000000  0.50000000  0.83060519  1
  Ca  Ca119  1  1.00000000  1.00000000  0.83060519  1
  Ca  Ca120  1  0.50000000  0.25000000  1.33060519  1
  Ca  Ca121  1  0.50000000  0.75000000  1.33060519  1
  Ca  Ca122  1  1.00000000  0.25000000  1.33060519  1
  Ca  Ca123  1  1.00000000  0.75000000  1.33060519  1
  Ca  Ca124  1  0.25000000  0.50000000  1.33060519  1
  Ca  Ca125  1  0.25000000  1.00000000  1.33060519  1
  Ca  Ca126  1  0.75000000  0.50000000  1.33060519  1
  Ca  Ca127  1  0.75000000  1.00000000  1.33060519  1
  Ca  Ca128  1  0.12500000  0.12500000  0.41939481  1
  Ca  Ca129  1  0.12500000  0.62500000  0.41939481  1
  Ca  Ca130  1  0.62500000  0.12500000  0.41939481  1
  Ca  Ca131  1  0.62500000  0.62500000  0.41939481  1
  Ca  Ca132  1  0.37500000  0.37500000  0.41939481  1
  Ca  Ca133  1  0.37500000  0.87500000  0.41939481  1
  Ca  Ca134  1  0.87500000  0.37500000  0.41939481  1
  Ca  Ca135  1  0.87500000  0.87500000  0.41939481  1
  Ca  Ca136  1  0.37500000  0.12500000  0.91939481  1
  Ca  Ca137  1  0.37500000  0.62500000  0.91939481  1
  Ca  Ca138  1  0.87500000  0.12500000  0.91939481  1
  Ca  Ca139  1  0.87500000  0.62500000  0.91939481  1
  Ca  Ca140  1  0.12500000  0.37500000  0.91939481  1
  Ca  Ca141  1  0.12500000  0.87500000  0.91939481  1
  Ca  Ca142  1  0.62500000  0.37500000  0.91939481  1
  Ca  Ca143  1  0.62500000  0.87500000  0.91939481  1
  Ca  Ca144  1  0.25000000  0.25000000  0.16939481  1
  Ca  Ca145  1  0.25000000  0.75000000  0.16939481  1
  Ca  Ca146  1  0.75000000  0.25000000  0.16939481  1
  Ca  Ca147  1  0.75000000  0.75000000  0.16939481  1
  Ca  Ca148  1  0.50000000  0.50000000  0.16939481  1
  Ca  Ca149  1  0.50000000  1.00000000  0.16939481  1
  Ca  Ca150  1  1.00000000  0.50000000  0.16939481  1
  Ca  Ca151  1  1.00000000  1.00000000  0.16939481  1
  Ca  Ca152  1  0.50000000  0.25000000  0.66939481  1
  Ca  Ca153  1  0.50000000  0.75000000  0.66939481  1
  Ca  Ca154  1  1.00000000  0.25000000  0.66939481  1
  Ca  Ca155  1  1.00000000  0.75000000  0.66939481  1
  Ca  Ca156  1  0.25000000  0.50000000  0.66939481  1
  Ca  Ca157  1  0.25000000  1.00000000  0.66939481  1
  Ca  Ca158  1  0.75000000  0.50000000  0.66939481  1
  Ca  Ca159  1  0.75000000  1.00000000  0.66939481  1
  Bi  Bi160  1  0.12500000  0.12500000  0.25000000  1
  Bi  Bi161  1  0.12500000  0.62500000  0.25000000  1
  Bi  Bi162  1  0.62500000  0.12500000  0.25000000  1
  Bi  Bi163  1  0.62500000  0.62500000  0.25000000  1
  Bi  Bi164  1  0.37500000  0.37500000  0.25000000  1
  Bi  Bi165  1  0.37500000  0.87500000  0.25000000  1
  Bi  Bi166  1  0.87500000  0.37500000  0.25000000  1
  Bi  Bi167  1  0.87500000  0.87500000  0.25000000  1
  Bi  Bi168  1  0.37500000  0.12500000  0.75000000  1
  Bi  Bi169  1  0.37500000  0.62500000  0.75000000  1
  Bi  Bi170  1  0.87500000  0.12500000  0.75000000  1
  Bi  Bi171  1  0.87500000  0.62500000  0.75000000  1
  Bi  Bi172  1  0.12500000  0.37500000  0.75000000  1
  Bi  Bi173  1  0.12500000  0.87500000  0.75000000  1
  Bi  Bi174  1  0.62500000  0.37500000  0.75000000  1
  Bi  Bi175  1  0.62500000  0.87500000  0.75000000  1
  Bi  Bi176  1  0.00000000  0.00000000  0.00000000  1
  Bi  Bi177  1  0.00000000  0.50000000  0.00000000  1
  Bi  Bi178  1  0.50000000  0.00000000  0.00000000  1
  Bi  Bi179  1  0.50000000  0.50000000  0.00000000  1
  Bi  Bi180  1  0.25000000  0.25000000  0.00000000  1
  Bi  Bi181  1  0.25000000  0.75000000  0.00000000  1
  Bi  Bi182  1  0.75000000  0.25000000  0.00000000  1
  Bi  Bi183  1  0.75000000  0.75000000  0.00000000  1
  Bi  Bi184  1  0.25000000  0.00000000  0.50000000  1
  Bi  Bi185  1  0.25000000  0.50000000  0.50000000  1
  Bi  Bi186  1  0.75000000  0.00000000  0.50000000  1
  Bi  Bi187  1  0.75000000  0.50000000  0.50000000  1
  Bi  Bi188  1  0.00000000  0.25000000  0.50000000  1
  Bi  Bi189  1  0.00000000  0.75000000  0.50000000  1
  Bi  Bi190  1  0.50000000  0.25000000  0.50000000  1
  Bi  Bi191  1  0.50000000  0.75000000  0.50000000  1
  O  O192  1  0.26150017  0.12303148  0.67227767  1
  O  O193  1  0.26150017  0.62303148  0.67227767  1
  O  O194  1  0.76150017  0.12303148  0.67227767  1
  O  O195  1  0.76150017  0.62303148  0.67227767  1
  O  O196  1  0.51150017  0.37303148  0.67227767  1
  O  O197  1  0.51150017  0.87303148  0.67227767  1
  O  O198  1  1.01150017  0.37303148  0.67227767  1
  O  O199  1  1.01150017  0.87303148  0.67227767  1
  O  O200  1  0.51150017  0.12303148  1.17227767  1
  O  O201  1  0.51150017  0.62303148  1.17227767  1
  O  O202  1  1.01150017  0.12303148  1.17227767  1
  O  O203  1  1.01150017  0.62303148  1.17227767  1
  O  O204  1  0.26150017  0.37303148  1.17227767  1
  O  O205  1  0.26150017  0.87303148  1.17227767  1
  O  O206  1  0.76150017  0.37303148  1.17227767  1
  O  O207  1  0.76150017  0.87303148  1.17227767  1
  O  O208  1  0.23849983  0.12303148  0.32772233  1
  O  O209  1  0.23849983  0.62303148  0.32772233  1
  O  O210  1  0.73849983  0.12303148  0.32772233  1
  O  O211  1  0.73849983  0.62303148  0.32772233  1
  O  O212  1  0.48849983  0.37303148  0.32772233  1
  O  O213  1  0.48849983  0.87303148  0.32772233  1
  O  O214  1  0.98849983  0.37303148  0.32772233  1
  O  O215  1  0.98849983  0.87303148  0.32772233  1
  O  O216  1  0.48849983  0.12303148  0.82772233  1
  O  O217  1  0.48849983  0.62303148  0.82772233  1
  O  O218  1  0.98849983  0.12303148  0.82772233  1
  O  O219  1  0.98849983  0.62303148  0.82772233  1
  O  O220  1  0.23849983  0.37303148  0.82772233  1
  O  O221  1  0.23849983  0.87303148  0.82772233  1
  O  O222  1  0.73849983  0.37303148  0.82772233  1
  O  O223  1  0.73849983  0.87303148  0.82772233  1
  O  O224  1  0.26150017  0.37696852  0.32772233  1
  O  O225  1  0.26150017  0.87696852  0.32772233  1
  O  O226  1  0.76150017  0.37696852  0.32772233  1
  O  O227  1  0.76150017  0.87696852  0.32772233  1
  O  O228  1  0.51150017  0.62696852  0.32772233  1
  O  O229  1  0.51150017  1.12696852  0.32772233  1
  O  O230  1  1.01150017  0.62696852  0.32772233  1
  O  O231  1  1.01150017  1.12696852  0.32772233  1
  O  O232  1  0.51150017  0.37696852  0.82772233  1
  O  O233  1  0.51150017  0.87696852  0.82772233  1
  O  O234  1  1.01150017  0.37696852  0.82772233  1
  O  O235  1  1.01150017  0.87696852  0.82772233  1
  O  O236  1  0.26150017  0.62696852  0.82772233  1
  O  O237  1  0.26150017  1.12696852  0.82772233  1
  O  O238  1  0.76150017  0.62696852  0.82772233  1
  O  O239  1  0.76150017  1.12696852  0.82772233  1
  O  O240  1  0.38650017  0.25196852  0.42227767  1
  O  O241  1  0.38650017  0.75196852  0.42227767  1
  O  O242  1  0.88650017  0.25196852  0.42227767  1
  O  O243  1  0.88650017  0.75196852  0.42227767  1
  O  O244  1  0.63650017  0.50196852  0.42227767  1
  O  O245  1  0.63650017  1.00196852  0.42227767  1
  O  O246  1  1.13650017  0.50196852  0.42227767  1
  O  O247  1  1.13650017  1.00196852  0.42227767  1
  O  O248  1  0.63650017  0.25196852  0.92227767  1
  O  O249  1  0.63650017  0.75196852  0.92227767  1
  O  O250  1  1.13650017  0.25196852  0.92227767  1
  O  O251  1  1.13650017  0.75196852  0.92227767  1
  O  O252  1  0.38650017  0.50196852  0.92227767  1
  O  O253  1  0.38650017  1.00196852  0.92227767  1
  O  O254  1  0.88650017  0.50196852  0.92227767  1
  O  O255  1  0.88650017  1.00196852  0.92227767  1
  O  O256  1  0.25000000  0.11251127  0.50000000  1
  O  O257  1  0.25000000  0.61251127  0.50000000  1
  O  O258  1  0.75000000  0.11251127  0.50000000  1
  O  O259  1  0.75000000  0.61251127  0.50000000  1
  O  O260  1  0.50000000  0.36251127  0.50000000  1
  O  O261  1  0.50000000  0.86251127  0.50000000  1
  O  O262  1  1.00000000  0.36251127  0.50000000  1
  O  O263  1  1.00000000  0.86251127  0.50000000  1
  O  O264  1  0.50000000  0.11251127  1.00000000  1
  O  O265  1  0.50000000  0.61251127  1.00000000  1
  O  O266  1  1.00000000  0.11251127  1.00000000  1
  O  O267  1  1.00000000  0.61251127  1.00000000  1
  O  O268  1  0.25000000  0.36251127  1.00000000  1
  O  O269  1  0.25000000  0.86251127  1.00000000  1
  O  O270  1  0.75000000  0.36251127  1.00000000  1
  O  O271  1  0.75000000  0.86251127  1.00000000  1
  O  O272  1  0.38650017  0.24803148  0.57772233  1
  O  O273  1  0.38650017  0.74803148  0.57772233  1
  O  O274  1  0.88650017  0.24803148  0.57772233  1
  O  O275  1  0.88650017  0.74803148  0.57772233  1
  O  O276  1  0.63650017  0.49803148  0.57772233  1
  O  O277  1  0.63650017  0.99803148  0.57772233  1
  O  O278  1  1.13650017  0.49803148  0.57772233  1
  O  O279  1  1.13650017  0.99803148  0.57772233  1
  O  O280  1  0.63650017  0.24803148  1.07772233  1
  O  O281  1  0.63650017  0.74803148  1.07772233  1
  O  O282  1  1.13650017  0.24803148  1.07772233  1
  O  O283  1  1.13650017  0.74803148  1.07772233  1
  O  O284  1  0.38650017  0.49803148  1.07772233  1
  O  O285  1  0.38650017  0.99803148  1.07772233  1
  O  O286  1  0.88650017  0.49803148  1.07772233  1
  O  O287  1  0.88650017  0.99803148  1.07772233  1
  O  O288  1  0.12500000  0.01248873  0.25000000  1
  O  O289  1  0.12500000  0.51248873  0.25000000  1
  O  O290  1  0.62500000  0.01248873  0.25000000  1
  O  O291  1  0.62500000  0.51248873  0.25000000  1
  O  O292  1  0.37500000  0.26248873  0.25000000  1
  O  O293  1  0.37500000  0.76248873  0.25000000  1
  O  O294  1  0.87500000  0.26248873  0.25000000  1
  O  O295  1  0.87500000  0.76248873  0.25000000  1
  O  O296  1  0.37500000  0.01248873  0.75000000  1
  O  O297  1  0.37500000  0.51248873  0.75000000  1
  O  O298  1  0.87500000  0.01248873  0.75000000  1
  O  O299  1  0.87500000  0.51248873  0.75000000  1
  O  O300  1  0.12500000  0.26248873  0.75000000  1
  O  O301  1  0.12500000  0.76248873  0.75000000  1
  O  O302  1  0.62500000  0.26248873  0.75000000  1
  O  O303  1  0.62500000  0.76248873  0.75000000  1
  O  O304  1  0.12500000  0.23751127  0.25000000  1
  O  O305  1  0.12500000  0.73751127  0.25000000  1
  O  O306  1  0.62500000  0.23751127  0.25000000  1
  O  O307  1  0.62500000  0.73751127  0.25000000  1
  O  O308  1  0.37500000  0.48751127  0.25000000  1
  O  O309  1  0.37500000  0.98751127  0.25000000  1
  O  O310  1  0.87500000  0.48751127  0.25000000  1
  O  O311  1  0.87500000  0.98751127  0.25000000  1
  O  O312  1  0.37500000  0.23751127  0.75000000  1
  O  O313  1  0.37500000  0.73751127  0.75000000  1
  O  O314  1  0.87500000  0.23751127  0.75000000  1
  O  O315  1  0.87500000  0.73751127  0.75000000  1
  O  O316  1  0.12500000  0.48751127  0.75000000  1
  O  O317  1  0.12500000  0.98751127  0.75000000  1
  O  O318  1  0.62500000  0.48751127  0.75000000  1
  O  O319  1  0.62500000  0.98751127  0.75000000  1
  O  O320  1  0.11349983  0.24803148  0.42227767  1
  O  O321  1  0.11349983  0.74803148  0.42227767  1
  O  O322  1  0.61349983  0.24803148  0.42227767  1
  O  O323  1  0.61349983  0.74803148  0.42227767  1
  O  O324  1  0.36349983  0.49803148  0.42227767  1
  O  O325  1  0.36349983  0.99803148  0.42227767  1
  O  O326  1  0.86349983  0.49803148  0.42227767  1
  O  O327  1  0.86349983  0.99803148  0.42227767  1
  O  O328  1  0.36349983  0.24803148  0.92227767  1
  O  O329  1  0.36349983  0.74803148  0.92227767  1
  O  O330  1  0.86349983  0.24803148  0.92227767  1
  O  O331  1  0.86349983  0.74803148  0.92227767  1
  O  O332  1  0.11349983  0.49803148  0.92227767  1
  O  O333  1  0.11349983  0.99803148  0.92227767  1
  O  O334  1  0.61349983  0.49803148  0.92227767  1
  O  O335  1  0.61349983  0.99803148  0.92227767  1
  O  O336  1  0.11349983  0.25196852  0.57772233  1
  O  O337  1  0.11349983  0.75196852  0.57772233  1
  O  O338  1  0.61349983  0.25196852  0.57772233  1
  O  O339  1  0.61349983  0.75196852  0.57772233  1
  O  O340  1  0.36349983  0.50196852  0.57772233  1
  O  O341  1  0.36349983  1.00196852  0.57772233  1
  O  O342  1  0.86349983  0.50196852  0.57772233  1
  O  O343  1  0.86349983  1.00196852  0.57772233  1
  O  O344  1  0.36349983  0.25196852  1.07772233  1
  O  O345  1  0.36349983  0.75196852  1.07772233  1
  O  O346  1  0.86349983  0.25196852  1.07772233  1
  O  O347  1  0.86349983  0.75196852  1.07772233  1
  O  O348  1  0.11349983  0.50196852  1.07772233  1
  O  O349  1  0.11349983  1.00196852  1.07772233  1
  O  O350  1  0.61349983  0.50196852  1.07772233  1
  O  O351  1  0.61349983  1.00196852  1.07772233  1
  O  O352  1  0.23849983  0.37696852  0.67227767  1
  O  O353  1  0.23849983  0.87696852  0.67227767  1
  O  O354  1  0.73849983  0.37696852  0.67227767  1
  O  O355  1  0.73849983  0.87696852  0.67227767  1
  O  O356  1  0.48849983  0.62696852  0.67227767  1
  O  O357  1  0.48849983  1.12696852  0.67227767  1
  O  O358  1  0.98849983  0.62696852  0.67227767  1
  O  O359  1  0.98849983  1.12696852  0.67227767  1
  O  O360  1  0.48849983  0.37696852  1.17227767  1
  O  O361  1  0.48849983  0.87696852  1.17227767  1
  O  O362  1  0.98849983  0.37696852  1.17227767  1
  O  O363  1  0.98849983  0.87696852  1.17227767  1
  O  O364  1  0.23849983  0.62696852  1.17227767  1
  O  O365  1  0.23849983  1.12696852  1.17227767  1
  O  O366  1  0.73849983  0.62696852  1.17227767  1
  O  O367  1  0.73849983  1.12696852  1.17227767  1
  O  O368  1  0.25000000  0.38748873  0.50000000  1
  O  O369  1  0.25000000  0.88748873  0.50000000  1
  O  O370  1  0.75000000  0.38748873  0.50000000  1
  O  O371  1  0.75000000  0.88748873  0.50000000  1
  O  O372  1  0.50000000  0.63748873  0.50000000  1
  O  O373  1  0.50000000  1.13748873  0.50000000  1
  O  O374  1  1.00000000  0.63748873  0.50000000  1
  O  O375  1  1.00000000  1.13748873  0.50000000  1
  O  O376  1  0.50000000  0.38748873  1.00000000  1
  O  O377  1  0.50000000  0.88748873  1.00000000  1
  O  O378  1  1.00000000  0.38748873  1.00000000  1
  O  O379  1  1.00000000  0.88748873  1.00000000  1
  O  O380  1  0.25000000  0.63748873  1.00000000  1
  O  O381  1  0.25000000  1.13748873  1.00000000  1
  O  O382  1  0.75000000  0.63748873  1.00000000  1
  O  O383  1  0.75000000  1.13748873  1.00000000  1
