# generated using pymatgen
data_RbTlO2
_symmetry_space_group_name_H-M   'P 1'
_cell_length_a   17.41917327
_cell_length_b   17.41917327
_cell_length_c   19.01228808
_cell_angle_alpha   90.00000000
_cell_angle_beta   90.00000000
_cell_angle_gamma   120.00000000
_symmetry_Int_Tables_number   1
_chemical_formula_structural   RbTlO2
_chemical_formula_sum   'Rb75 Tl75 O150'
_cell_volume   4995.97315567
_cell_formula_units_Z   75
loop_
 _symmetry_equiv_pos_site_id
 _symmetry_equiv_pos_as_xyz
  1  'x, y, z'
loop_
 _atom_site_type_symbol
 _atom_site_label
 _atom_site_symmetry_multiplicity
 _atom_site_fract_x
 _atom_site_fract_y
 _atom_site_fract_z
 _atom_site_occupancy
  Rb  Rb0  1  -0.00000000  -0.00000000  0.50000000  1
  Rb  Rb1  1  -0.00000000  0.20000000  0.50000000  1
  Rb  Rb2  1  -0.00000000  0.40000000  0.50000000  1
  Rb  Rb3  1  -0.00000000  0.60000000  0.50000000  1
  Rb  Rb4  1  -0.00000000  0.80000000  0.50000000  1
  Rb  Rb5  1  0.20000000  -0.00000000  0.50000000  1
  Rb  Rb6  1  0.20000000  0.20000000  0.50000000  1
  Rb  Rb7  1  0.20000000  0.40000000  0.50000000  1
  Rb  Rb8  1  0.20000000  0.60000000  0.50000000  1
  Rb  Rb9  1  0.20000000  0.80000000  0.50000000  1
  Rb  Rb10  1  0.40000000  -0.00000000  0.50000000  1
  Rb  Rb11  1  0.40000000  0.20000000  0.50000000  1
  Rb  Rb12  1  0.40000000  0.40000000  0.50000000  1
  Rb  Rb13  1  0.40000000  0.60000000  0.50000000  1
  Rb  Rb14  1  0.40000000  0.80000000  0.50000000  1
  Rb  Rb15  1  0.60000000  -0.00000000  0.50000000  1
  Rb  Rb16  1  0.60000000  0.20000000  0.50000000  1
  Rb  Rb17  1  0.60000000  0.40000000  0.50000000  1
  Rb  Rb18  1  0.60000000  0.60000000  0.50000000  1
  Rb  Rb19  1  0.60000000  0.80000000  0.50000000  1
  Rb  Rb20  1  0.80000000  -0.00000000  0.50000000  1
  Rb  Rb21  1  0.80000000  0.20000000  0.50000000  1
  Rb  Rb22  1  0.80000000  0.40000000  0.50000000  1
  Rb  Rb23  1  0.80000000  0.60000000  0.50000000  1
  Rb  Rb24  1  0.80000000  0.80000000  0.50000000  1
  Rb  Rb25  1  0.13333333  0.06666667  0.83333333  1
  Rb  Rb26  1  0.13333333  0.26666667  0.83333333  1
  Rb  Rb27  1  0.13333333  0.46666667  0.83333333  1
  Rb  Rb28  1  0.13333333  0.66666667  0.83333333  1
  Rb  Rb29  1  0.13333333  0.86666667  0.83333333  1
  Rb  Rb30  1  0.33333333  0.06666667  0.83333333  1
  Rb  Rb31  1  0.33333333  0.26666667  0.83333333  1
  Rb  Rb32  1  0.33333333  0.46666667  0.83333333  1
  Rb  Rb33  1  0.33333333  0.66666667  0.83333333  1
  Rb  Rb34  1  0.33333333  0.86666667  0.83333333  1
  Rb  Rb35  1  0.53333333  0.06666667  0.83333333  1
  Rb  Rb36  1  0.53333333  0.26666667  0.83333333  1
  Rb  Rb37  1  0.53333333  0.46666667  0.83333333  1
  Rb  Rb38  1  0.53333333  0.66666667  0.83333333  1
  Rb  Rb39  1  0.53333333  0.86666667  0.83333333  1
  Rb  Rb40  1  0.73333333  0.06666667  0.83333333  1
  Rb  Rb41  1  0.73333333  0.26666667  0.83333333  1
  Rb  Rb42  1  0.73333333  0.46666667  0.83333333  1
  Rb  Rb43  1  0.73333333  0.66666667  0.83333333  1
  Rb  Rb44  1  0.73333333  0.86666667  0.83333333  1
  Rb  Rb45  1  0.93333333  0.06666667  0.83333333  1
  Rb  Rb46  1  0.93333333  0.26666667  0.83333333  1
  Rb  Rb47  1  0.93333333  0.46666667  0.83333333  1
  Rb  Rb48  1  0.93333333  0.66666667  0.83333333  1
  Rb  Rb49  1  0.93333333  0.86666667  0.83333333  1
  Rb  Rb50  1  0.06666667  0.13333333  1.16666667  1
  Rb  Rb51  1  0.06666667  0.33333333  1.16666667  1
  Rb  Rb52  1  0.06666667  0.53333333  1.16666667  1
  Rb  Rb53  1  0.06666667  0.73333333  1.16666667  1
  Rb  Rb54  1  0.06666667  0.93333333  1.16666667  1
  Rb  Rb55  1  0.26666667  0.13333333  1.16666667  1
  Rb  Rb56  1  0.26666667  0.33333333  1.16666667  1
  Rb  Rb57  1  0.26666667  0.53333333  1.16666667  1
  Rb  Rb58  1  0.26666667  0.73333333  1.16666667  1
  Rb  Rb59  1  0.26666667  0.93333333  1.16666667  1
  Rb  Rb60  1  0.46666667  0.13333333  1.16666667  1
  Rb  Rb61  1  0.46666667  0.33333333  1.16666667  1
  Rb  Rb62  1  0.46666667  0.53333333  1.16666667  1
  Rb  Rb63  1  0.46666667  0.73333333  1.16666667  1
  Rb  Rb64  1  0.46666667  0.93333333  1.16666667  1
  Rb  Rb65  1  0.66666667  0.13333333  1.16666667  1
  Rb  Rb66  1  0.66666667  0.33333333  1.16666667  1
  Rb  Rb67  1  0.66666667  0.53333333  1.16666667  1
  Rb  Rb68  1  0.66666667  0.73333333  1.16666667  1
  Rb  Rb69  1  0.66666667  0.93333333  1.16666667  1
  Rb  Rb70  1  0.86666667  0.13333333  1.16666667  1
  Rb  Rb71  1  0.86666667  0.33333333  1.16666667  1
  Rb  Rb72  1  0.86666667  0.53333333  1.16666667  1
  Rb  Rb73  1  0.86666667  0.73333333  1.16666667  1
  Rb  Rb74  1  0.86666667  0.93333333  1.16666667  1
  Tl  Tl75  1  -0.00000000  -0.00000000  -0.00000000  1
  Tl  Tl76  1  -0.00000000  0.20000000  -0.00000000  1
  Tl  Tl77  1  -0.00000000  0.40000000  -0.00000000  1
  Tl  Tl78  1  -0.00000000  0.60000000  -0.00000000  1
  Tl  Tl79  1  -0.00000000  0.80000000  -0.00000000  1
  Tl  Tl80  1  0.20000000  -0.00000000  -0.00000000  1
  Tl  Tl81  1  0.20000000  0.20000000  -0.00000000  1
  Tl  Tl82  1  0.20000000  0.40000000  -0.00000000  1
  Tl  Tl83  1  0.20000000  0.60000000  -0.00000000  1
  Tl  Tl84  1  0.20000000  0.80000000  -0.00000000  1
  Tl  Tl85  1  0.40000000  -0.00000000  -0.00000000  1
  Tl  Tl86  1  0.40000000  0.20000000  -0.00000000  1
  Tl  Tl87  1  0.40000000  0.40000000  -0.00000000  1
  Tl  Tl88  1  0.40000000  0.60000000  -0.00000000  1
  Tl  Tl89  1  0.40000000  0.80000000  -0.00000000  1
  Tl  Tl90  1  0.60000000  -0.00000000  -0.00000000  1
  Tl  Tl91  1  0.60000000  0.20000000  -0.00000000  1
  Tl  Tl92  1  0.60000000  0.40000000  -0.00000000  1
  Tl  Tl93  1  0.60000000  0.60000000  -0.00000000  1
  Tl  Tl94  1  0.60000000  0.80000000  -0.00000000  1
  Tl  Tl95  1  0.80000000  -0.00000000  -0.00000000  1
  Tl  Tl96  1  0.80000000  0.20000000  -0.00000000  1
  Tl  Tl97  1  0.80000000  0.40000000  -0.00000000  1
  Tl  Tl98  1  0.80000000  0.60000000  -0.00000000  1
  Tl  Tl99  1  0.80000000  0.80000000  -0.00000000  1
  Tl  Tl100  1  0.13333333  0.06666667  0.33333333  1
  Tl  Tl101  1  0.13333333  0.26666667  0.33333333  1
  Tl  Tl102  1  0.13333333  0.46666667  0.33333333  1
  Tl  Tl103  1  0.13333333  0.66666667  0.33333333  1
  Tl  Tl104  1  0.13333333  0.86666667  0.33333333  1
  Tl  Tl105  1  0.33333333  0.06666667  0.33333333  1
  Tl  Tl106  1  0.33333333  0.26666667  0.33333333  1
  Tl  Tl107  1  0.33333333  0.46666667  0.33333333  1
  Tl  Tl108  1  0.33333333  0.66666667  0.33333333  1
  Tl  Tl109  1  0.33333333  0.86666667  0.33333333  1
  Tl  Tl110  1  0.53333333  0.06666667  0.33333333  1
  Tl  Tl111  1  0.53333333  0.26666667  0.33333333  1
  Tl  Tl112  1  0.53333333  0.46666667  0.33333333  1
  Tl  Tl113  1  0.53333333  0.66666667  0.33333333  1
  Tl  Tl114  1  0.53333333  0.86666667  0.33333333  1
  Tl  Tl115  1  0.73333333  0.06666667  0.33333333  1
  Tl  Tl116  1  0.73333333  0.26666667  0.33333333  1
  Tl  Tl117  1  0.73333333  0.46666667  0.33333333  1
  Tl  Tl118  1  0.73333333  0.66666667  0.33333333  1
  Tl  Tl119  1  0.73333333  0.86666667  0.33333333  1
  Tl  Tl120  1  0.93333333  0.06666667  0.33333333  1
  Tl  Tl121  1  0.93333333  0.26666667  0.33333333  1
  Tl  Tl122  1  0.93333333  0.46666667  0.33333333  1
  Tl  Tl123  1  0.93333333  0.66666667  0.33333333  1
  Tl  Tl124  1  0.93333333  0.86666667  0.33333333  1
  Tl  Tl125  1  0.06666667  0.13333333  0.66666667  1
  Tl  Tl126  1  0.06666667  0.33333333  0.66666667  1
  Tl  Tl127  1  0.06666667  0.53333333  0.66666667  1
  Tl  Tl128  1  0.06666667  0.73333333  0.66666667  1
  Tl  Tl129  1  0.06666667  0.93333333  0.66666667  1
  Tl  Tl130  1  0.26666667  0.13333333  0.66666667  1
  Tl  Tl131  1  0.26666667  0.33333333  0.66666667  1
  Tl  Tl132  1  0.26666667  0.53333333  0.66666667  1
  Tl  Tl133  1  0.26666667  0.73333333  0.66666667  1
  Tl  Tl134  1  0.26666667  0.93333333  0.66666667  1
  Tl  Tl135  1  0.46666667  0.13333333  0.66666667  1
  Tl  Tl136  1  0.46666667  0.33333333  0.66666667  1
  Tl  Tl137  1  0.46666667  0.53333333  0.66666667  1
  Tl  Tl138  1  0.46666667  0.73333333  0.66666667  1
  Tl  Tl139  1  0.46666667  0.93333333  0.66666667  1
  Tl  Tl140  1  0.66666667  0.13333333  0.66666667  1
  Tl  Tl141  1  0.66666667  0.33333333  0.66666667  1
  Tl  Tl142  1  0.66666667  0.53333333  0.66666667  1
  Tl  Tl143  1  0.66666667  0.73333333  0.66666667  1
  Tl  Tl144  1  0.66666667  0.93333333  0.66666667  1
  Tl  Tl145  1  0.86666667  0.13333333  0.66666667  1
  Tl  Tl146  1  0.86666667  0.33333333  0.66666667  1
  Tl  Tl147  1  0.86666667  0.53333333  0.66666667  1
  Tl  Tl148  1  0.86666667  0.73333333  0.66666667  1
  Tl  Tl149  1  0.86666667  0.93333333  0.66666667  1
  O  O150  1  -0.00000000  -0.00000000  0.27126237  1
  O  O151  1  -0.00000000  0.20000000  0.27126237  1
  O  O152  1  -0.00000000  0.40000000  0.27126237  1
  O  O153  1  -0.00000000  0.60000000  0.27126237  1
  O  O154  1  -0.00000000  0.80000000  0.27126237  1
  O  O155  1  0.20000000  -0.00000000  0.27126237  1
  O  O156  1  0.20000000  0.20000000  0.27126237  1
  O  O157  1  0.20000000  0.40000000  0.27126237  1
  O  O158  1  0.20000000  0.60000000  0.27126237  1
  O  O159  1  0.20000000  0.80000000  0.27126237  1
  O  O160  1  0.40000000  -0.00000000  0.27126237  1
  O  O161  1  0.40000000  0.20000000  0.27126237  1
  O  O162  1  0.40000000  0.40000000  0.27126237  1
  O  O163  1  0.40000000  0.60000000  0.27126237  1
  O  O164  1  0.40000000  0.80000000  0.27126237  1
  O  O165  1  0.60000000  -0.00000000  0.27126237  1
  O  O166  1  0.60000000  0.20000000  0.27126237  1
  O  O167  1  0.60000000  0.40000000  0.27126237  1
  O  O168  1  0.60000000  0.60000000  0.27126237  1
  O  O169  1  0.60000000  0.80000000  0.27126237  1
  O  O170  1  0.80000000  -0.00000000  0.27126237  1
  O  O171  1  0.80000000  0.20000000  0.27126237  1
  O  O172  1  0.80000000  0.40000000  0.27126237  1
  O  O173  1  0.80000000  0.60000000  0.27126237  1
  O  O174  1  0.80000000  0.80000000  0.27126237  1
  O  O175  1  0.13333333  0.06666667  0.60459571  1
  O  O176  1  0.13333333  0.26666667  0.60459571  1
  O  O177  1  0.13333333  0.46666667  0.60459571  1
  O  O178  1  0.13333333  0.66666667  0.60459571  1
  O  O179  1  0.13333333  0.86666667  0.60459571  1
  O  O180  1  0.33333333  0.06666667  0.60459571  1
  O  O181  1  0.33333333  0.26666667  0.60459571  1
  O  O182  1  0.33333333  0.46666667  0.60459571  1
  O  O183  1  0.33333333  0.66666667  0.60459571  1
  O  O184  1  0.33333333  0.86666667  0.60459571  1
  O  O185  1  0.53333333  0.06666667  0.60459571  1
  O  O186  1  0.53333333  0.26666667  0.60459571  1
  O  O187  1  0.53333333  0.46666667  0.60459571  1
  O  O188  1  0.53333333  0.66666667  0.60459571  1
  O  O189  1  0.53333333  0.86666667  0.60459571  1
  O  O190  1  0.73333333  0.06666667  0.60459571  1
  O  O191  1  0.73333333  0.26666667  0.60459571  1
  O  O192  1  0.73333333  0.46666667  0.60459571  1
  O  O193  1  0.73333333  0.66666667  0.60459571  1
  O  O194  1  0.73333333  0.86666667  0.60459571  1
  O  O195  1  0.93333333  0.06666667  0.60459571  1
  O  O196  1  0.93333333  0.26666667  0.60459571  1
  O  O197  1  0.93333333  0.46666667  0.60459571  1
  O  O198  1  0.93333333  0.66666667  0.60459571  1
  O  O199  1  0.93333333  0.86666667  0.60459571  1
  O  O200  1  0.06666667  0.13333333  0.93792904  1
  O  O201  1  0.06666667  0.33333333  0.93792904  1
  O  O202  1  0.06666667  0.53333333  0.93792904  1
  O  O203  1  0.06666667  0.73333333  0.93792904  1
  O  O204  1  0.06666667  0.93333333  0.93792904  1
  O  O205  1  0.26666667  0.13333333  0.93792904  1
  O  O206  1  0.26666667  0.33333333  0.93792904  1
  O  O207  1  0.26666667  0.53333333  0.93792904  1
  O  O208  1  0.26666667  0.73333333  0.93792904  1
  O  O209  1  0.26666667  0.93333333  0.93792904  1
  O  O210  1  0.46666667  0.13333333  0.93792904  1
  O  O211  1  0.46666667  0.33333333  0.93792904  1
  O  O212  1  0.46666667  0.53333333  0.93792904  1
  O  O213  1  0.46666667  0.73333333  0.93792904  1
  O  O214  1  0.46666667  0.93333333  0.93792904  1
  O  O215  1  0.66666667  0.13333333  0.93792904  1
  O  O216  1  0.66666667  0.33333333  0.93792904  1
  O  O217  1  0.66666667  0.53333333  0.93792904  1
  O  O218  1  0.66666667  0.73333333  0.93792904  1
  O  O219  1  0.66666667  0.93333333  0.93792904  1
  O  O220  1  0.86666667  0.13333333  0.93792904  1
  O  O221  1  0.86666667  0.33333333  0.93792904  1
  O  O222  1  0.86666667  0.53333333  0.93792904  1
  O  O223  1  0.86666667  0.73333333  0.93792904  1
  O  O224  1  0.86666667  0.93333333  0.93792904  1
  O  O225  1  -0.00000000  -0.00000000  0.72873763  1
  O  O226  1  -0.00000000  0.20000000  0.72873763  1
  O  O227  1  -0.00000000  0.40000000  0.72873763  1
  O  O228  1  -0.00000000  0.60000000  0.72873763  1
  O  O229  1  -0.00000000  0.80000000  0.72873763  1
  O  O230  1  0.20000000  -0.00000000  0.72873763  1
  O  O231  1  0.20000000  0.20000000  0.72873763  1
  O  O232  1  0.20000000  0.40000000  0.72873763  1
  O  O233  1  0.20000000  0.60000000  0.72873763  1
  O  O234  1  0.20000000  0.80000000  0.72873763  1
  O  O235  1  0.40000000  -0.00000000  0.72873763  1
  O  O236  1  0.40000000  0.20000000  0.72873763  1
  O  O237  1  0.40000000  0.40000000  0.72873763  1
  O  O238  1  0.40000000  0.60000000  0.72873763  1
  O  O239  1  0.40000000  0.80000000  0.72873763  1
  O  O240  1  0.60000000  -0.00000000  0.72873763  1
  O  O241  1  0.60000000  0.20000000  0.72873763  1
  O  O242  1  0.60000000  0.40000000  0.72873763  1
  O  O243  1  0.60000000  0.60000000  0.72873763  1
  O  O244  1  0.60000000  0.80000000  0.72873763  1
  O  O245  1  0.80000000  -0.00000000  0.72873763  1
  O  O246  1  0.80000000  0.20000000  0.72873763  1
  O  O247  1  0.80000000  0.40000000  0.72873763  1
  O  O248  1  0.80000000  0.60000000  0.72873763  1
  O  O249  1  0.80000000  0.80000000  0.72873763  1
  O  O250  1  0.13333333  0.06666667  1.06207096  1
  O  O251  1  0.13333333  0.26666667  1.06207096  1
  O  O252  1  0.13333333  0.46666667  1.06207096  1
  O  O253  1  0.13333333  0.66666667  1.06207096  1
  O  O254  1  0.13333333  0.86666667  1.06207096  1
  O  O255  1  0.33333333  0.06666667  1.06207096  1
  O  O256  1  0.33333333  0.26666667  1.06207096  1
  O  O257  1  0.33333333  0.46666667  1.06207096  1
  O  O258  1  0.33333333  0.66666667  1.06207096  1
  O  O259  1  0.33333333  0.86666667  1.06207096  1
  O  O260  1  0.53333333  0.06666667  1.06207096  1
  O  O261  1  0.53333333  0.26666667  1.06207096  1
  O  O262  1  0.53333333  0.46666667  1.06207096  1
  O  O263  1  0.53333333  0.66666667  1.06207096  1
  O  O264  1  0.53333333  0.86666667  1.06207096  1
  O  O265  1  0.73333333  0.06666667  1.06207096  1
  O  O266  1  0.73333333  0.26666667  1.06207096  1
  O  O267  1  0.73333333  0.46666667  1.06207096  1
  O  O268  1  0.73333333  0.66666667  1.06207096  1
  O  O269  1  0.73333333  0.86666667  1.06207096  1
  O  O270  1  0.93333333  0.06666667  1.06207096  1
  O  O271  1  0.93333333  0.26666667  1.06207096  1
  O  O272  1  0.93333333  0.46666667  1.06207096  1
  O  O273  1  0.93333333  0.66666667  1.06207096  1
  O  O274  1  0.93333333  0.86666667  1.06207096  1
  O  O275  1  0.06666667  0.13333333  1.39540429  1
  O  O276  1  0.06666667  0.33333333  1.39540429  1
  O  O277  1  0.06666667  0.53333333  1.39540429  1
  O  O278  1  0.06666667  0.73333333  1.39540429  1
  O  O279  1  0.06666667  0.93333333  1.39540429  1
  O  O280  1  0.26666667  0.13333333  1.39540429  1
  O  O281  1  0.26666667  0.33333333  1.39540429  1
  O  O282  1  0.26666667  0.53333333  1.39540429  1
  O  O283  1  0.26666667  0.73333333  1.39540429  1
  O  O284  1  0.26666667  0.93333333  1.39540429  1
  O  O285  1  0.46666667  0.13333333  1.39540429  1
  O  O286  1  0.46666667  0.33333333  1.39540429  1
  O  O287  1  0.46666667  0.53333333  1.39540429  1
  O  O288  1  0.46666667  0.73333333  1.39540429  1
  O  O289  1  0.46666667  0.93333333  1.39540429  1
  O  O290  1  0.66666667  0.13333333  1.39540429  1
  O  O291  1  0.66666667  0.33333333  1.39540429  1
  O  O292  1  0.66666667  0.53333333  1.39540429  1
  O  O293  1  0.66666667  0.73333333  1.39540429  1
  O  O294  1  0.66666667  0.93333333  1.39540429  1
  O  O295  1  0.86666667  0.13333333  1.39540429  1
  O  O296  1  0.86666667  0.33333333  1.39540429  1
  O  O297  1  0.86666667  0.53333333  1.39540429  1
  O  O298  1  0.86666667  0.73333333  1.39540429  1
  O  O299  1  0.86666667  0.93333333  1.39540429  1
