# generated using pymatgen
data_Li3BiO4
_symmetry_space_group_name_H-M   'P 1'
_cell_length_a   10.41274903
_cell_length_b   12.58135111
_cell_length_c   10.59918136
_cell_angle_alpha   90.00000000
_cell_angle_beta   107.87397829
_cell_angle_gamma   90.00000000
_symmetry_Int_Tables_number   1
_chemical_formula_structural   Li3BiO4
_chemical_formula_sum   'Li48 Bi16 O64'
_cell_volume   1321.54070431
_cell_formula_units_Z   16
loop_
 _symmetry_equiv_pos_site_id
 _symmetry_equiv_pos_as_xyz
  1  'x, y, z'
loop_
 _atom_site_type_symbol
 _atom_site_label
 _atom_site_symmetry_multiplicity
 _atom_site_fract_x
 _atom_site_fract_y
 _atom_site_fract_z
 _atom_site_occupancy
  Li  Li0  1  0.00000000  0.30617895  0.12500000  1
  Li  Li1  1  0.00000000  0.30617895  0.62500000  1
  Li  Li2  1  0.00000000  0.80617895  0.12500000  1
  Li  Li3  1  0.00000000  0.80617895  0.62500000  1
  Li  Li4  1  0.50000000  0.30617895  0.12500000  1
  Li  Li5  1  0.50000000  0.30617895  0.62500000  1
  Li  Li6  1  0.50000000  0.80617895  0.12500000  1
  Li  Li7  1  0.50000000  0.80617895  0.62500000  1
  Li  Li8  1  0.00000000  0.19382105  0.37500000  1
  Li  Li9  1  0.00000000  0.19382105  0.87500000  1
  Li  Li10  1  0.00000000  0.69382105  0.37500000  1
  Li  Li11  1  0.00000000  0.69382105  0.87500000  1
  Li  Li12  1  0.50000000  0.19382105  0.37500000  1
  Li  Li13  1  0.50000000  0.19382105  0.87500000  1
  Li  Li14  1  0.50000000  0.69382105  0.37500000  1
  Li  Li15  1  0.50000000  0.69382105  0.87500000  1
  Li  Li16  1  0.25000000  0.42258961  0.12500000  1
  Li  Li17  1  0.25000000  0.42258961  0.62500000  1
  Li  Li18  1  0.25000000  0.92258961  0.12500000  1
  Li  Li19  1  0.25000000  0.92258961  0.62500000  1
  Li  Li20  1  0.75000000  0.42258961  0.12500000  1
  Li  Li21  1  0.75000000  0.42258961  0.62500000  1
  Li  Li22  1  0.75000000  0.92258961  0.12500000  1
  Li  Li23  1  0.75000000  0.92258961  0.62500000  1
  Li  Li24  1  0.25000000  0.21464312  0.12500000  1
  Li  Li25  1  0.25000000  0.21464312  0.62500000  1
  Li  Li26  1  0.25000000  0.71464312  0.12500000  1
  Li  Li27  1  0.25000000  0.71464312  0.62500000  1
  Li  Li28  1  0.75000000  0.21464312  0.12500000  1
  Li  Li29  1  0.75000000  0.21464312  0.62500000  1
  Li  Li30  1  0.75000000  0.71464312  0.12500000  1
  Li  Li31  1  0.75000000  0.71464312  0.62500000  1
  Li  Li32  1  0.25000000  0.28535688  0.37500000  1
  Li  Li33  1  0.25000000  0.28535688  0.87500000  1
  Li  Li34  1  0.25000000  0.78535688  0.37500000  1
  Li  Li35  1  0.25000000  0.78535688  0.87500000  1
  Li  Li36  1  0.75000000  0.28535688  0.37500000  1
  Li  Li37  1  0.75000000  0.28535688  0.87500000  1
  Li  Li38  1  0.75000000  0.78535688  0.37500000  1
  Li  Li39  1  0.75000000  0.78535688  0.87500000  1
  Li  Li40  1  0.25000000  0.07741039  0.37500000  1
  Li  Li41  1  0.25000000  0.07741039  0.87500000  1
  Li  Li42  1  0.25000000  0.57741039  0.37500000  1
  Li  Li43  1  0.25000000  0.57741039  0.87500000  1
  Li  Li44  1  0.75000000  0.07741039  0.37500000  1
  Li  Li45  1  0.75000000  0.07741039  0.87500000  1
  Li  Li46  1  0.75000000  0.57741039  0.37500000  1
  Li  Li47  1  0.75000000  0.57741039  0.87500000  1
  Bi  Bi48  1  0.00000000  0.07457203  0.12500000  1
  Bi  Bi49  1  0.00000000  0.07457203  0.62500000  1
  Bi  Bi50  1  0.00000000  0.57457203  0.12500000  1
  Bi  Bi51  1  0.00000000  0.57457203  0.62500000  1
  Bi  Bi52  1  0.50000000  0.07457203  0.12500000  1
  Bi  Bi53  1  0.50000000  0.07457203  0.62500000  1
  Bi  Bi54  1  0.50000000  0.57457203  0.12500000  1
  Bi  Bi55  1  0.50000000  0.57457203  0.62500000  1
  Bi  Bi56  1  0.00000000  0.42542797  0.37500000  1
  Bi  Bi57  1  0.00000000  0.42542797  0.87500000  1
  Bi  Bi58  1  0.00000000  0.92542797  0.37500000  1
  Bi  Bi59  1  0.00000000  0.92542797  0.87500000  1
  Bi  Bi60  1  0.50000000  0.42542797  0.37500000  1
  Bi  Bi61  1  0.50000000  0.42542797  0.87500000  1
  Bi  Bi62  1  0.50000000  0.92542797  0.37500000  1
  Bi  Bi63  1  0.50000000  0.92542797  0.87500000  1
  O  O64  1  0.37401187  0.18683937  0.00726081  1
  O  O65  1  0.37401187  0.18683937  0.50726081  1
  O  O66  1  0.37401187  0.68683937  0.00726081  1
  O  O67  1  0.37401187  0.68683937  0.50726081  1
  O  O68  1  0.87401187  0.18683937  0.00726081  1
  O  O69  1  0.87401187  0.18683937  0.50726081  1
  O  O70  1  0.87401187  0.68683937  0.00726081  1
  O  O71  1  0.87401187  0.68683937  0.50726081  1
  O  O72  1  0.38128791  0.05356328  0.25667393  1
  O  O73  1  0.38128791  0.05356328  0.75667393  1
  O  O74  1  0.38128791  0.55356328  0.25667393  1
  O  O75  1  0.38128791  0.55356328  0.75667393  1
  O  O76  1  0.88128791  0.05356328  0.25667393  1
  O  O77  1  0.88128791  0.05356328  0.75667393  1
  O  O78  1  0.88128791  0.55356328  0.25667393  1
  O  O79  1  0.88128791  0.55356328  0.75667393  1
  O  O80  1  0.37401187  0.31316063  0.25726081  1
  O  O81  1  0.37401187  0.31316063  0.75726081  1
  O  O82  1  0.37401187  0.81316063  0.25726081  1
  O  O83  1  0.37401187  0.81316063  0.75726081  1
  O  O84  1  0.87401187  0.31316063  0.25726081  1
  O  O85  1  0.87401187  0.31316063  0.75726081  1
  O  O86  1  0.87401187  0.81316063  0.25726081  1
  O  O87  1  0.87401187  0.81316063  0.75726081  1
  O  O88  1  0.38128791  0.44643672  0.00667393  1
  O  O89  1  0.38128791  0.44643672  0.50667393  1
  O  O90  1  0.38128791  0.94643672  0.00667393  1
  O  O91  1  0.38128791  0.94643672  0.50667393  1
  O  O92  1  0.88128791  0.44643672  0.00667393  1
  O  O93  1  0.88128791  0.44643672  0.50667393  1
  O  O94  1  0.88128791  0.94643672  0.00667393  1
  O  O95  1  0.88128791  0.94643672  0.50667393  1
  O  O96  1  0.12598813  0.18683937  0.24273919  1
  O  O97  1  0.12598813  0.18683937  0.74273919  1
  O  O98  1  0.12598813  0.68683937  0.24273919  1
  O  O99  1  0.12598813  0.68683937  0.74273919  1
  O  O100  1  0.62598813  0.18683937  0.24273919  1
  O  O101  1  0.62598813  0.18683937  0.74273919  1
  O  O102  1  0.62598813  0.68683937  0.24273919  1
  O  O103  1  0.62598813  0.68683937  0.74273919  1
  O  O104  1  0.11871209  0.44643672  0.24332607  1
  O  O105  1  0.11871209  0.44643672  0.74332607  1
  O  O106  1  0.11871209  0.94643672  0.24332607  1
  O  O107  1  0.11871209  0.94643672  0.74332607  1
  O  O108  1  0.61871209  0.44643672  0.24332607  1
  O  O109  1  0.61871209  0.44643672  0.74332607  1
  O  O110  1  0.61871209  0.94643672  0.24332607  1
  O  O111  1  0.61871209  0.94643672  0.74332607  1
  O  O112  1  0.12598813  0.31316063  0.49273919  1
  O  O113  1  0.12598813  0.31316063  0.99273919  1
  O  O114  1  0.12598813  0.81316063  0.49273919  1
  O  O115  1  0.12598813  0.81316063  0.99273919  1
  O  O116  1  0.62598813  0.31316063  0.49273919  1
  O  O117  1  0.62598813  0.31316063  0.99273919  1
  O  O118  1  0.62598813  0.81316063  0.49273919  1
  O  O119  1  0.62598813  0.81316063  0.99273919  1
  O  O120  1  0.11871209  0.05356328  0.49332607  1
  O  O121  1  0.11871209  0.05356328  0.99332607  1
  O  O122  1  0.11871209  0.55356328  0.49332607  1
  O  O123  1  0.11871209  0.55356328  0.99332607  1
  O  O124  1  0.61871209  0.05356328  0.49332607  1
  O  O125  1  0.61871209  0.05356328  0.99332607  1
  O  O126  1  0.61871209  0.55356328  0.49332607  1
  O  O127  1  0.61871209  0.55356328  0.99332607  1
