# generated using pymatgen
data_Rb2TiO3
_symmetry_space_group_name_H-M   'P 1'
_cell_length_a   12.03511157
_cell_length_b   11.88928170
_cell_length_c   13.27764336
_cell_angle_alpha   90.00000000
_cell_angle_beta   90.00000000
_cell_angle_gamma   90.00000000
_symmetry_Int_Tables_number   1
_chemical_formula_structural   Rb2TiO3
_chemical_formula_sum   'Rb32 Ti16 O48'
_cell_volume   1899.88247730
_cell_formula_units_Z   16
loop_
 _symmetry_equiv_pos_site_id
 _symmetry_equiv_pos_as_xyz
  1  'x, y, z'
loop_
 _atom_site_type_symbol
 _atom_site_label
 _atom_site_symmetry_multiplicity
 _atom_site_fract_x
 _atom_site_fract_y
 _atom_site_fract_z
 _atom_site_occupancy
  Rb  Rb0  1  0.25000000  0.13207723  0.07407583  1
  Rb  Rb1  1  0.75000000  0.13207723  0.07407583  1
  Rb  Rb2  1  0.50000000  0.63207723  0.07407583  1
  Rb  Rb3  1  1.00000000  0.63207723  0.07407583  1
  Rb  Rb4  1  0.25000000  -0.36792277  0.42592417  1
  Rb  Rb5  1  0.75000000  -0.36792277  0.42592417  1
  Rb  Rb6  1  0.50000000  0.13207723  0.42592417  1
  Rb  Rb7  1  1.00000000  0.13207723  0.42592417  1
  Rb  Rb8  1  0.25000000  0.36792277  0.57407583  1
  Rb  Rb9  1  0.75000000  0.36792277  0.57407583  1
  Rb  Rb10  1  0.50000000  0.86792277  0.57407583  1
  Rb  Rb11  1  1.00000000  0.86792277  0.57407583  1
  Rb  Rb12  1  0.25000000  -0.13207723  0.92592417  1
  Rb  Rb13  1  0.75000000  -0.13207723  0.92592417  1
  Rb  Rb14  1  0.50000000  0.36792277  0.92592417  1
  Rb  Rb15  1  1.00000000  0.36792277  0.92592417  1
  Rb  Rb16  1  0.25000000  0.05740665  0.63745512  1
  Rb  Rb17  1  0.75000000  0.05740665  0.63745512  1
  Rb  Rb18  1  0.50000000  0.55740665  0.63745512  1
  Rb  Rb19  1  1.00000000  0.55740665  0.63745512  1
  Rb  Rb20  1  0.25000000  -0.05740665  0.36254488  1
  Rb  Rb21  1  0.75000000  -0.05740665  0.36254488  1
  Rb  Rb22  1  0.50000000  0.44259335  0.36254488  1
  Rb  Rb23  1  1.00000000  0.44259335  0.36254488  1
  Rb  Rb24  1  0.25000000  0.44259335  0.13745512  1
  Rb  Rb25  1  0.75000000  0.44259335  0.13745512  1
  Rb  Rb26  1  0.50000000  0.94259335  0.13745512  1
  Rb  Rb27  1  1.00000000  0.94259335  0.13745512  1
  Rb  Rb28  1  0.25000000  -0.44259335  0.86254488  1
  Rb  Rb29  1  0.75000000  -0.44259335  0.86254488  1
  Rb  Rb30  1  0.50000000  0.05740665  0.86254488  1
  Rb  Rb31  1  1.00000000  0.05740665  0.86254488  1
  Ti  Ti32  1  0.25000000  -0.25432175  0.66919837  1
  Ti  Ti33  1  0.75000000  -0.25432175  0.66919837  1
  Ti  Ti34  1  0.50000000  0.24567825  0.66919837  1
  Ti  Ti35  1  1.00000000  0.24567825  0.66919837  1
  Ti  Ti36  1  0.25000000  -0.24567825  0.16919837  1
  Ti  Ti37  1  0.75000000  -0.24567825  0.16919837  1
  Ti  Ti38  1  0.50000000  0.25432175  0.16919837  1
  Ti  Ti39  1  1.00000000  0.25432175  0.16919837  1
  Ti  Ti40  1  0.25000000  0.25432175  0.33080163  1
  Ti  Ti41  1  0.75000000  0.25432175  0.33080163  1
  Ti  Ti42  1  0.50000000  0.75432175  0.33080163  1
  Ti  Ti43  1  1.00000000  0.75432175  0.33080163  1
  Ti  Ti44  1  0.25000000  0.24567825  0.83080163  1
  Ti  Ti45  1  0.75000000  0.24567825  0.83080163  1
  Ti  Ti46  1  0.50000000  0.74567825  0.83080163  1
  Ti  Ti47  1  1.00000000  0.74567825  0.83080163  1
  O  O48  1  0.37500000  -0.22130130  0.75000000  1
  O  O49  1  0.87500000  -0.22130130  0.75000000  1
  O  O50  1  0.62500000  0.27869870  0.75000000  1
  O  O51  1  1.12500000  0.27869870  0.75000000  1
  O  O52  1  0.37500000  0.22130130  0.25000000  1
  O  O53  1  0.87500000  0.22130130  0.25000000  1
  O  O54  1  0.62500000  0.72130130  0.25000000  1
  O  O55  1  1.12500000  0.72130130  0.25000000  1
  O  O56  1  0.12500000  0.22130130  0.25000000  1
  O  O57  1  0.62500000  0.22130130  0.25000000  1
  O  O58  1  0.37500000  0.72130130  0.25000000  1
  O  O59  1  0.87500000  0.72130130  0.25000000  1
  O  O60  1  0.12500000  -0.22130130  0.75000000  1
  O  O61  1  0.62500000  -0.22130130  0.75000000  1
  O  O62  1  0.37500000  0.27869870  0.75000000  1
  O  O63  1  0.87500000  0.27869870  0.75000000  1
  O  O64  1  0.25000000  0.09919675  0.86322622  1
  O  O65  1  0.75000000  0.09919675  0.86322622  1
  O  O66  1  0.50000000  0.59919675  0.86322622  1
  O  O67  1  1.00000000  0.59919675  0.86322622  1
  O  O68  1  0.25000000  -0.09919675  0.13677378  1
  O  O69  1  0.75000000  -0.09919675  0.13677378  1
  O  O70  1  0.50000000  0.40080325  0.13677378  1
  O  O71  1  1.00000000  0.40080325  0.13677378  1
  O  O72  1  0.25000000  0.40080325  0.36322622  1
  O  O73  1  0.75000000  0.40080325  0.36322622  1
  O  O74  1  0.50000000  0.90080325  0.36322622  1
  O  O75  1  1.00000000  0.90080325  0.36322622  1
  O  O76  1  0.25000000  -0.16678907  0.55924730  1
  O  O77  1  0.75000000  -0.16678907  0.55924730  1
  O  O78  1  0.50000000  0.33321093  0.55924730  1
  O  O79  1  1.00000000  0.33321093  0.55924730  1
  O  O80  1  0.25000000  0.33321093  0.94075270  1
  O  O81  1  0.75000000  0.33321093  0.94075270  1
  O  O82  1  0.50000000  0.83321093  0.94075270  1
  O  O83  1  1.00000000  0.83321093  0.94075270  1
  O  O84  1  0.25000000  -0.33321093  0.05924730  1
  O  O85  1  0.75000000  -0.33321093  0.05924730  1
  O  O86  1  0.50000000  0.16678907  0.05924730  1
  O  O87  1  1.00000000  0.16678907  0.05924730  1
  O  O88  1  0.25000000  0.16678907  0.44075270  1
  O  O89  1  0.75000000  0.16678907  0.44075270  1
  O  O90  1  0.50000000  0.66678907  0.44075270  1
  O  O91  1  1.00000000  0.66678907  0.44075270  1
  O  O92  1  0.25000000  -0.40080325  0.63677378  1
  O  O93  1  0.75000000  -0.40080325  0.63677378  1
  O  O94  1  0.50000000  0.09919675  0.63677378  1
  O  O95  1  1.00000000  0.09919675  0.63677378  1
