# generated using pymatgen
data_BeTlAsO4
_symmetry_space_group_name_H-M   'P 1'
_cell_length_a   19.98978297
_cell_length_b   16.28475685
_cell_length_c   19.73852559
_cell_angle_alpha   90.00000000
_cell_angle_beta   90.00000000
_cell_angle_gamma   90.00000000
_symmetry_Int_Tables_number   1
_chemical_formula_structural   BeTlAsO4
_chemical_formula_sum   'Be64 Tl64 As64 O256'
_cell_volume   6425.45766458
_cell_formula_units_Z   64
loop_
 _symmetry_equiv_pos_site_id
 _symmetry_equiv_pos_as_xyz
  1  'x, y, z'
loop_
 _atom_site_type_symbol
 _atom_site_label
 _atom_site_symmetry_multiplicity
 _atom_site_fract_x
 _atom_site_fract_y
 _atom_site_fract_z
 _atom_site_occupancy
  Be  Be0  1  0.43008184  0.06346545  0.24204512  1
  Be  Be1  1  0.43008184  0.06346545  0.49204512  1
  Be  Be2  1  0.43008184  0.06346545  0.74204512  1
  Be  Be3  1  0.43008184  0.06346545  0.99204512  1
  Be  Be4  1  0.43008184  0.56346545  0.24204512  1
  Be  Be5  1  0.43008184  0.56346545  0.49204512  1
  Be  Be6  1  0.43008184  0.56346545  0.74204512  1
  Be  Be7  1  0.43008184  0.56346545  0.99204512  1
  Be  Be8  1  0.93008184  0.06346545  0.24204512  1
  Be  Be9  1  0.93008184  0.06346545  0.49204512  1
  Be  Be10  1  0.93008184  0.06346545  0.74204512  1
  Be  Be11  1  0.93008184  0.06346545  0.99204512  1
  Be  Be12  1  0.93008184  0.56346545  0.24204512  1
  Be  Be13  1  0.93008184  0.56346545  0.49204512  1
  Be  Be14  1  0.93008184  0.56346545  0.74204512  1
  Be  Be15  1  0.93008184  0.56346545  0.99204512  1
  Be  Be16  1  0.06991816  0.43653455  0.11704512  1
  Be  Be17  1  0.06991816  0.43653455  0.36704512  1
  Be  Be18  1  0.06991816  0.43653455  0.61704512  1
  Be  Be19  1  0.06991816  0.43653455  0.86704512  1
  Be  Be20  1  0.06991816  0.93653455  0.11704512  1
  Be  Be21  1  0.06991816  0.93653455  0.36704512  1
  Be  Be22  1  0.06991816  0.93653455  0.61704512  1
  Be  Be23  1  0.06991816  0.93653455  0.86704512  1
  Be  Be24  1  0.56991816  0.43653455  0.11704512  1
  Be  Be25  1  0.56991816  0.43653455  0.36704512  1
  Be  Be26  1  0.56991816  0.43653455  0.61704512  1
  Be  Be27  1  0.56991816  0.43653455  0.86704512  1
  Be  Be28  1  0.56991816  0.93653455  0.11704512  1
  Be  Be29  1  0.56991816  0.93653455  0.36704512  1
  Be  Be30  1  0.56991816  0.93653455  0.61704512  1
  Be  Be31  1  0.56991816  0.93653455  0.86704512  1
  Be  Be32  1  0.31991816  0.31346545  0.11704512  1
  Be  Be33  1  0.31991816  0.31346545  0.36704512  1
  Be  Be34  1  0.31991816  0.31346545  0.61704512  1
  Be  Be35  1  0.31991816  0.31346545  0.86704512  1
  Be  Be36  1  0.31991816  0.81346545  0.11704512  1
  Be  Be37  1  0.31991816  0.81346545  0.36704512  1
  Be  Be38  1  0.31991816  0.81346545  0.61704512  1
  Be  Be39  1  0.31991816  0.81346545  0.86704512  1
  Be  Be40  1  0.81991816  0.31346545  0.11704512  1
  Be  Be41  1  0.81991816  0.31346545  0.36704512  1
  Be  Be42  1  0.81991816  0.31346545  0.61704512  1
  Be  Be43  1  0.81991816  0.31346545  0.86704512  1
  Be  Be44  1  0.81991816  0.81346545  0.11704512  1
  Be  Be45  1  0.81991816  0.81346545  0.36704512  1
  Be  Be46  1  0.81991816  0.81346545  0.61704512  1
  Be  Be47  1  0.81991816  0.81346545  0.86704512  1
  Be  Be48  1  0.18008184  0.18653455  0.24204512  1
  Be  Be49  1  0.18008184  0.18653455  0.49204512  1
  Be  Be50  1  0.18008184  0.18653455  0.74204512  1
  Be  Be51  1  0.18008184  0.18653455  0.99204512  1
  Be  Be52  1  0.18008184  0.68653455  0.24204512  1
  Be  Be53  1  0.18008184  0.68653455  0.49204512  1
  Be  Be54  1  0.18008184  0.68653455  0.74204512  1
  Be  Be55  1  0.18008184  0.68653455  0.99204512  1
  Be  Be56  1  0.68008184  0.18653455  0.24204512  1
  Be  Be57  1  0.68008184  0.18653455  0.49204512  1
  Be  Be58  1  0.68008184  0.18653455  0.74204512  1
  Be  Be59  1  0.68008184  0.18653455  0.99204512  1
  Be  Be60  1  0.68008184  0.68653455  0.24204512  1
  Be  Be61  1  0.68008184  0.68653455  0.49204512  1
  Be  Be62  1  0.68008184  0.68653455  0.74204512  1
  Be  Be63  1  0.68008184  0.68653455  0.99204512  1
  Tl  Tl64  1  0.27886825  0.43386696  0.24422788  1
  Tl  Tl65  1  0.27886825  0.43386696  0.49422788  1
  Tl  Tl66  1  0.27886825  0.43386696  0.74422788  1
  Tl  Tl67  1  0.27886825  0.43386696  0.99422788  1
  Tl  Tl68  1  0.27886825  0.93386696  0.24422788  1
  Tl  Tl69  1  0.27886825  0.93386696  0.49422788  1
  Tl  Tl70  1  0.27886825  0.93386696  0.74422788  1
  Tl  Tl71  1  0.27886825  0.93386696  0.99422788  1
  Tl  Tl72  1  0.77886825  0.43386696  0.24422788  1
  Tl  Tl73  1  0.77886825  0.43386696  0.49422788  1
  Tl  Tl74  1  0.77886825  0.43386696  0.74422788  1
  Tl  Tl75  1  0.77886825  0.43386696  0.99422788  1
  Tl  Tl76  1  0.77886825  0.93386696  0.24422788  1
  Tl  Tl77  1  0.77886825  0.93386696  0.49422788  1
  Tl  Tl78  1  0.77886825  0.93386696  0.74422788  1
  Tl  Tl79  1  0.77886825  0.93386696  0.99422788  1
  Tl  Tl80  1  0.22113175  0.06613304  0.11922788  1
  Tl  Tl81  1  0.22113175  0.06613304  0.36922788  1
  Tl  Tl82  1  0.22113175  0.06613304  0.61922788  1
  Tl  Tl83  1  0.22113175  0.06613304  0.86922788  1
  Tl  Tl84  1  0.22113175  0.56613304  0.11922788  1
  Tl  Tl85  1  0.22113175  0.56613304  0.36922788  1
  Tl  Tl86  1  0.22113175  0.56613304  0.61922788  1
  Tl  Tl87  1  0.22113175  0.56613304  0.86922788  1
  Tl  Tl88  1  0.72113175  0.06613304  0.11922788  1
  Tl  Tl89  1  0.72113175  0.06613304  0.36922788  1
  Tl  Tl90  1  0.72113175  0.06613304  0.61922788  1
  Tl  Tl91  1  0.72113175  0.06613304  0.86922788  1
  Tl  Tl92  1  0.72113175  0.56613304  0.11922788  1
  Tl  Tl93  1  0.72113175  0.56613304  0.36922788  1
  Tl  Tl94  1  0.72113175  0.56613304  0.61922788  1
  Tl  Tl95  1  0.72113175  0.56613304  0.86922788  1
  Tl  Tl96  1  0.47113175  0.18386696  0.11922788  1
  Tl  Tl97  1  0.47113175  0.18386696  0.36922788  1
  Tl  Tl98  1  0.47113175  0.18386696  0.61922788  1
  Tl  Tl99  1  0.47113175  0.18386696  0.86922788  1
  Tl  Tl100  1  0.47113175  0.68386696  0.11922788  1
  Tl  Tl101  1  0.47113175  0.68386696  0.36922788  1
  Tl  Tl102  1  0.47113175  0.68386696  0.61922788  1
  Tl  Tl103  1  0.47113175  0.68386696  0.86922788  1
  Tl  Tl104  1  0.97113175  0.18386696  0.11922788  1
  Tl  Tl105  1  0.97113175  0.18386696  0.36922788  1
  Tl  Tl106  1  0.97113175  0.18386696  0.61922788  1
  Tl  Tl107  1  0.97113175  0.18386696  0.86922788  1
  Tl  Tl108  1  0.97113175  0.68386696  0.11922788  1
  Tl  Tl109  1  0.97113175  0.68386696  0.36922788  1
  Tl  Tl110  1  0.97113175  0.68386696  0.61922788  1
  Tl  Tl111  1  0.97113175  0.68386696  0.86922788  1
  Tl  Tl112  1  0.02886825  0.31613304  0.24422788  1
  Tl  Tl113  1  0.02886825  0.31613304  0.49422788  1
  Tl  Tl114  1  0.02886825  0.31613304  0.74422788  1
  Tl  Tl115  1  0.02886825  0.31613304  0.99422788  1
  Tl  Tl116  1  0.02886825  0.81613304  0.24422788  1
  Tl  Tl117  1  0.02886825  0.81613304  0.49422788  1
  Tl  Tl118  1  0.02886825  0.81613304  0.74422788  1
  Tl  Tl119  1  0.02886825  0.81613304  0.99422788  1
  Tl  Tl120  1  0.52886825  0.31613304  0.24422788  1
  Tl  Tl121  1  0.52886825  0.31613304  0.49422788  1
  Tl  Tl122  1  0.52886825  0.31613304  0.74422788  1
  Tl  Tl123  1  0.52886825  0.31613304  0.99422788  1
  Tl  Tl124  1  0.52886825  0.81613304  0.24422788  1
  Tl  Tl125  1  0.52886825  0.81613304  0.49422788  1
  Tl  Tl126  1  0.52886825  0.81613304  0.74422788  1
  Tl  Tl127  1  0.52886825  0.81613304  0.99422788  1
  As  As128  1  0.41836013  0.46074347  0.11696595  1
  As  As129  1  0.41836013  0.46074347  0.36696595  1
  As  As130  1  0.41836013  0.46074347  0.61696595  1
  As  As131  1  0.41836013  0.46074347  0.86696595  1
  As  As132  1  0.41836013  0.96074347  0.11696595  1
  As  As133  1  0.41836013  0.96074347  0.36696595  1
  As  As134  1  0.41836013  0.96074347  0.61696595  1
  As  As135  1  0.41836013  0.96074347  0.86696595  1
  As  As136  1  0.91836013  0.46074347  0.11696595  1
  As  As137  1  0.91836013  0.46074347  0.36696595  1
  As  As138  1  0.91836013  0.46074347  0.61696595  1
  As  As139  1  0.91836013  0.46074347  0.86696595  1
  As  As140  1  0.91836013  0.96074347  0.11696595  1
  As  As141  1  0.91836013  0.96074347  0.36696595  1
  As  As142  1  0.91836013  0.96074347  0.61696595  1
  As  As143  1  0.91836013  0.96074347  0.86696595  1
  As  As144  1  0.08163987  0.03925653  0.24196595  1
  As  As145  1  0.08163987  0.03925653  0.49196595  1
  As  As146  1  0.08163987  0.03925653  0.74196595  1
  As  As147  1  0.08163987  0.03925653  0.99196595  1
  As  As148  1  0.08163987  0.53925653  0.24196595  1
  As  As149  1  0.08163987  0.53925653  0.49196595  1
  As  As150  1  0.08163987  0.53925653  0.74196595  1
  As  As151  1  0.08163987  0.53925653  0.99196595  1
  As  As152  1  0.58163987  0.03925653  0.24196595  1
  As  As153  1  0.58163987  0.03925653  0.49196595  1
  As  As154  1  0.58163987  0.03925653  0.74196595  1
  As  As155  1  0.58163987  0.03925653  0.99196595  1
  As  As156  1  0.58163987  0.53925653  0.24196595  1
  As  As157  1  0.58163987  0.53925653  0.49196595  1
  As  As158  1  0.58163987  0.53925653  0.74196595  1
  As  As159  1  0.58163987  0.53925653  0.99196595  1
  As  As160  1  0.33163987  0.21074347  0.24196595  1
  As  As161  1  0.33163987  0.21074347  0.49196595  1
  As  As162  1  0.33163987  0.21074347  0.74196595  1
  As  As163  1  0.33163987  0.21074347  0.99196595  1
  As  As164  1  0.33163987  0.71074347  0.24196595  1
  As  As165  1  0.33163987  0.71074347  0.49196595  1
  As  As166  1  0.33163987  0.71074347  0.74196595  1
  As  As167  1  0.33163987  0.71074347  0.99196595  1
  As  As168  1  0.83163987  0.21074347  0.24196595  1
  As  As169  1  0.83163987  0.21074347  0.49196595  1
  As  As170  1  0.83163987  0.21074347  0.74196595  1
  As  As171  1  0.83163987  0.21074347  0.99196595  1
  As  As172  1  0.83163987  0.71074347  0.24196595  1
  As  As173  1  0.83163987  0.71074347  0.49196595  1
  As  As174  1  0.83163987  0.71074347  0.74196595  1
  As  As175  1  0.83163987  0.71074347  0.99196595  1
  As  As176  1  0.16836013  0.28925653  0.11696595  1
  As  As177  1  0.16836013  0.28925653  0.36696595  1
  As  As178  1  0.16836013  0.28925653  0.61696595  1
  As  As179  1  0.16836013  0.28925653  0.86696595  1
  As  As180  1  0.16836013  0.78925653  0.11696595  1
  As  As181  1  0.16836013  0.78925653  0.36696595  1
  As  As182  1  0.16836013  0.78925653  0.61696595  1
  As  As183  1  0.16836013  0.78925653  0.86696595  1
  As  As184  1  0.66836013  0.28925653  0.11696595  1
  As  As185  1  0.66836013  0.28925653  0.36696595  1
  As  As186  1  0.66836013  0.28925653  0.61696595  1
  As  As187  1  0.66836013  0.28925653  0.86696595  1
  As  As188  1  0.66836013  0.78925653  0.11696595  1
  As  As189  1  0.66836013  0.78925653  0.36696595  1
  As  As190  1  0.66836013  0.78925653  0.61696595  1
  As  As191  1  0.66836013  0.78925653  0.86696595  1
  O  O192  1  0.35491143  0.39870792  0.14304659  1
  O  O193  1  0.35491143  0.39870792  0.39304659  1
  O  O194  1  0.35491143  0.39870792  0.64304659  1
  O  O195  1  0.35491143  0.39870792  0.89304659  1
  O  O196  1  0.35491143  0.89870792  0.14304659  1
  O  O197  1  0.35491143  0.89870792  0.39304659  1
  O  O198  1  0.35491143  0.89870792  0.64304659  1
  O  O199  1  0.35491143  0.89870792  0.89304659  1
  O  O200  1  0.85491143  0.39870792  0.14304659  1
  O  O201  1  0.85491143  0.39870792  0.39304659  1
  O  O202  1  0.85491143  0.39870792  0.64304659  1
  O  O203  1  0.85491143  0.39870792  0.89304659  1
  O  O204  1  0.85491143  0.89870792  0.14304659  1
  O  O205  1  0.85491143  0.89870792  0.39304659  1
  O  O206  1  0.85491143  0.89870792  0.64304659  1
  O  O207  1  0.85491143  0.89870792  0.89304659  1
  O  O208  1  0.14508857  0.10129208  0.01804659  1
  O  O209  1  0.14508857  0.10129208  0.26804659  1
  O  O210  1  0.14508857  0.10129208  0.51804659  1
  O  O211  1  0.14508857  0.10129208  0.76804659  1
  O  O212  1  0.14508857  0.60129208  0.01804659  1
  O  O213  1  0.14508857  0.60129208  0.26804659  1
  O  O214  1  0.14508857  0.60129208  0.51804659  1
  O  O215  1  0.14508857  0.60129208  0.76804659  1
  O  O216  1  0.64508857  0.10129208  0.01804659  1
  O  O217  1  0.64508857  0.10129208  0.26804659  1
  O  O218  1  0.64508857  0.10129208  0.51804659  1
  O  O219  1  0.64508857  0.10129208  0.76804659  1
  O  O220  1  0.64508857  0.60129208  0.01804659  1
  O  O221  1  0.64508857  0.60129208  0.26804659  1
  O  O222  1  0.64508857  0.60129208  0.51804659  1
  O  O223  1  0.64508857  0.60129208  0.76804659  1
  O  O224  1  0.39508857  0.14870792  0.01804659  1
  O  O225  1  0.39508857  0.14870792  0.26804659  1
  O  O226  1  0.39508857  0.14870792  0.51804659  1
  O  O227  1  0.39508857  0.14870792  0.76804659  1
  O  O228  1  0.39508857  0.64870792  0.01804659  1
  O  O229  1  0.39508857  0.64870792  0.26804659  1
  O  O230  1  0.39508857  0.64870792  0.51804659  1
  O  O231  1  0.39508857  0.64870792  0.76804659  1
  O  O232  1  0.89508857  0.14870792  0.01804659  1
  O  O233  1  0.89508857  0.14870792  0.26804659  1
  O  O234  1  0.89508857  0.14870792  0.51804659  1
  O  O235  1  0.89508857  0.14870792  0.76804659  1
  O  O236  1  0.89508857  0.64870792  0.01804659  1
  O  O237  1  0.89508857  0.64870792  0.26804659  1
  O  O238  1  0.89508857  0.64870792  0.51804659  1
  O  O239  1  0.89508857  0.64870792  0.76804659  1
  O  O240  1  0.10491143  0.35129208  0.14304659  1
  O  O241  1  0.10491143  0.35129208  0.39304659  1
  O  O242  1  0.10491143  0.35129208  0.64304659  1
  O  O243  1  0.10491143  0.35129208  0.89304659  1
  O  O244  1  0.10491143  0.85129208  0.14304659  1
  O  O245  1  0.10491143  0.85129208  0.39304659  1
  O  O246  1  0.10491143  0.85129208  0.64304659  1
  O  O247  1  0.10491143  0.85129208  0.89304659  1
  O  O248  1  0.60491143  0.35129208  0.14304659  1
  O  O249  1  0.60491143  0.35129208  0.39304659  1
  O  O250  1  0.60491143  0.35129208  0.64304659  1
  O  O251  1  0.60491143  0.35129208  0.89304659  1
  O  O252  1  0.60491143  0.85129208  0.14304659  1
  O  O253  1  0.60491143  0.85129208  0.39304659  1
  O  O254  1  0.60491143  0.85129208  0.64304659  1
  O  O255  1  0.60491143  0.85129208  0.89304659  1
  O  O256  1  0.40648950  0.48206118  0.03304149  1
  O  O257  1  0.40648950  0.48206118  0.28304149  1
  O  O258  1  0.40648950  0.48206118  0.53304149  1
  O  O259  1  0.40648950  0.48206118  0.78304149  1
  O  O260  1  0.40648950  0.98206118  0.03304149  1
  O  O261  1  0.40648950  0.98206118  0.28304149  1
  O  O262  1  0.40648950  0.98206118  0.53304149  1
  O  O263  1  0.40648950  0.98206118  0.78304149  1
  O  O264  1  0.90648950  0.48206118  0.03304149  1
  O  O265  1  0.90648950  0.48206118  0.28304149  1
  O  O266  1  0.90648950  0.48206118  0.53304149  1
  O  O267  1  0.90648950  0.48206118  0.78304149  1
  O  O268  1  0.90648950  0.98206118  0.03304149  1
  O  O269  1  0.90648950  0.98206118  0.28304149  1
  O  O270  1  0.90648950  0.98206118  0.53304149  1
  O  O271  1  0.90648950  0.98206118  0.78304149  1
  O  O272  1  0.09351050  0.01793882  0.15804149  1
  O  O273  1  0.09351050  0.01793882  0.40804149  1
  O  O274  1  0.09351050  0.01793882  0.65804149  1
  O  O275  1  0.09351050  0.01793882  0.90804149  1
  O  O276  1  0.09351050  0.51793882  0.15804149  1
  O  O277  1  0.09351050  0.51793882  0.40804149  1
  O  O278  1  0.09351050  0.51793882  0.65804149  1
  O  O279  1  0.09351050  0.51793882  0.90804149  1
  O  O280  1  0.59351050  0.01793882  0.15804149  1
  O  O281  1  0.59351050  0.01793882  0.40804149  1
  O  O282  1  0.59351050  0.01793882  0.65804149  1
  O  O283  1  0.59351050  0.01793882  0.90804149  1
  O  O284  1  0.59351050  0.51793882  0.15804149  1
  O  O285  1  0.59351050  0.51793882  0.40804149  1
  O  O286  1  0.59351050  0.51793882  0.65804149  1
  O  O287  1  0.59351050  0.51793882  0.90804149  1
  O  O288  1  0.34351050  0.23206118  0.15804149  1
  O  O289  1  0.34351050  0.23206118  0.40804149  1
  O  O290  1  0.34351050  0.23206118  0.65804149  1
  O  O291  1  0.34351050  0.23206118  0.90804149  1
  O  O292  1  0.34351050  0.73206118  0.15804149  1
  O  O293  1  0.34351050  0.73206118  0.40804149  1
  O  O294  1  0.34351050  0.73206118  0.65804149  1
  O  O295  1  0.34351050  0.73206118  0.90804149  1
  O  O296  1  0.84351050  0.23206118  0.15804149  1
  O  O297  1  0.84351050  0.23206118  0.40804149  1
  O  O298  1  0.84351050  0.23206118  0.65804149  1
  O  O299  1  0.84351050  0.23206118  0.90804149  1
  O  O300  1  0.84351050  0.73206118  0.15804149  1
  O  O301  1  0.84351050  0.73206118  0.40804149  1
  O  O302  1  0.84351050  0.73206118  0.65804149  1
  O  O303  1  0.84351050  0.73206118  0.90804149  1
  O  O304  1  0.15648950  0.26793882  0.03304149  1
  O  O305  1  0.15648950  0.26793882  0.28304149  1
  O  O306  1  0.15648950  0.26793882  0.53304149  1
  O  O307  1  0.15648950  0.26793882  0.78304149  1
  O  O308  1  0.15648950  0.76793882  0.03304149  1
  O  O309  1  0.15648950  0.76793882  0.28304149  1
  O  O310  1  0.15648950  0.76793882  0.53304149  1
  O  O311  1  0.15648950  0.76793882  0.78304149  1
  O  O312  1  0.65648950  0.26793882  0.03304149  1
  O  O313  1  0.65648950  0.26793882  0.28304149  1
  O  O314  1  0.65648950  0.26793882  0.53304149  1
  O  O315  1  0.65648950  0.26793882  0.78304149  1
  O  O316  1  0.65648950  0.76793882  0.03304149  1
  O  O317  1  0.65648950  0.76793882  0.28304149  1
  O  O318  1  0.65648950  0.76793882  0.53304149  1
  O  O319  1  0.65648950  0.76793882  0.78304149  1
  O  O320  1  0.49189716  0.41066066  0.13131753  1
  O  O321  1  0.49189716  0.41066066  0.38131753  1
  O  O322  1  0.49189716  0.41066066  0.63131753  1
  O  O323  1  0.49189716  0.41066066  0.88131753  1
  O  O324  1  0.49189716  0.91066066  0.13131753  1
  O  O325  1  0.49189716  0.91066066  0.38131753  1
  O  O326  1  0.49189716  0.91066066  0.63131753  1
  O  O327  1  0.49189716  0.91066066  0.88131753  1
  O  O328  1  0.99189716  0.41066066  0.13131753  1
  O  O329  1  0.99189716  0.41066066  0.38131753  1
  O  O330  1  0.99189716  0.41066066  0.63131753  1
  O  O331  1  0.99189716  0.41066066  0.88131753  1
  O  O332  1  0.99189716  0.91066066  0.13131753  1
  O  O333  1  0.99189716  0.91066066  0.38131753  1
  O  O334  1  0.99189716  0.91066066  0.63131753  1
  O  O335  1  0.99189716  0.91066066  0.88131753  1
  O  O336  1  0.00810284  0.08933934  0.00631753  1
  O  O337  1  0.00810284  0.08933934  0.25631753  1
  O  O338  1  0.00810284  0.08933934  0.50631753  1
  O  O339  1  0.00810284  0.08933934  0.75631753  1
  O  O340  1  0.00810284  0.58933934  0.00631753  1
  O  O341  1  0.00810284  0.58933934  0.25631753  1
  O  O342  1  0.00810284  0.58933934  0.50631753  1
  O  O343  1  0.00810284  0.58933934  0.75631753  1
  O  O344  1  0.50810284  0.08933934  0.00631753  1
  O  O345  1  0.50810284  0.08933934  0.25631753  1
  O  O346  1  0.50810284  0.08933934  0.50631753  1
  O  O347  1  0.50810284  0.08933934  0.75631753  1
  O  O348  1  0.50810284  0.58933934  0.00631753  1
  O  O349  1  0.50810284  0.58933934  0.25631753  1
  O  O350  1  0.50810284  0.58933934  0.50631753  1
  O  O351  1  0.50810284  0.58933934  0.75631753  1
  O  O352  1  0.25810284  0.16066066  0.00631753  1
  O  O353  1  0.25810284  0.16066066  0.25631753  1
  O  O354  1  0.25810284  0.16066066  0.50631753  1
  O  O355  1  0.25810284  0.16066066  0.75631753  1
  O  O356  1  0.25810284  0.66066066  0.00631753  1
  O  O357  1  0.25810284  0.66066066  0.25631753  1
  O  O358  1  0.25810284  0.66066066  0.50631753  1
  O  O359  1  0.25810284  0.66066066  0.75631753  1
  O  O360  1  0.75810284  0.16066066  0.00631753  1
  O  O361  1  0.75810284  0.16066066  0.25631753  1
  O  O362  1  0.75810284  0.16066066  0.50631753  1
  O  O363  1  0.75810284  0.16066066  0.75631753  1
  O  O364  1  0.75810284  0.66066066  0.00631753  1
  O  O365  1  0.75810284  0.66066066  0.25631753  1
  O  O366  1  0.75810284  0.66066066  0.50631753  1
  O  O367  1  0.75810284  0.66066066  0.75631753  1
  O  O368  1  0.24189716  0.33933934  0.13131753  1
  O  O369  1  0.24189716  0.33933934  0.38131753  1
  O  O370  1  0.24189716  0.33933934  0.63131753  1
  O  O371  1  0.24189716  0.33933934  0.88131753  1
  O  O372  1  0.24189716  0.83933934  0.13131753  1
  O  O373  1  0.24189716  0.83933934  0.38131753  1
  O  O374  1  0.24189716  0.83933934  0.63131753  1
  O  O375  1  0.24189716  0.83933934  0.88131753  1
  O  O376  1  0.74189716  0.33933934  0.13131753  1
  O  O377  1  0.74189716  0.33933934  0.38131753  1
  O  O378  1  0.74189716  0.33933934  0.63131753  1
  O  O379  1  0.74189716  0.33933934  0.88131753  1
  O  O380  1  0.74189716  0.83933934  0.13131753  1
  O  O381  1  0.74189716  0.83933934  0.38131753  1
  O  O382  1  0.74189716  0.83933934  0.63131753  1
  O  O383  1  0.74189716  0.83933934  0.88131753  1
  O  O384  1  0.41338357  0.05049911  0.16210544  1
  O  O385  1  0.41338357  0.05049911  0.41210544  1
  O  O386  1  0.41338357  0.05049911  0.66210544  1
  O  O387  1  0.41338357  0.05049911  0.91210544  1
  O  O388  1  0.41338357  0.55049911  0.16210544  1
  O  O389  1  0.41338357  0.55049911  0.41210544  1
  O  O390  1  0.41338357  0.55049911  0.66210544  1
  O  O391  1  0.41338357  0.55049911  0.91210544  1
  O  O392  1  0.91338357  0.05049911  0.16210544  1
  O  O393  1  0.91338357  0.05049911  0.41210544  1
  O  O394  1  0.91338357  0.05049911  0.66210544  1
  O  O395  1  0.91338357  0.05049911  0.91210544  1
  O  O396  1  0.91338357  0.55049911  0.16210544  1
  O  O397  1  0.91338357  0.55049911  0.41210544  1
  O  O398  1  0.91338357  0.55049911  0.66210544  1
  O  O399  1  0.91338357  0.55049911  0.91210544  1
  O  O400  1  0.08661643  0.44950089  0.03710544  1
  O  O401  1  0.08661643  0.44950089  0.28710544  1
  O  O402  1  0.08661643  0.44950089  0.53710544  1
  O  O403  1  0.08661643  0.44950089  0.78710544  1
  O  O404  1  0.08661643  0.94950089  0.03710544  1
  O  O405  1  0.08661643  0.94950089  0.28710544  1
  O  O406  1  0.08661643  0.94950089  0.53710544  1
  O  O407  1  0.08661643  0.94950089  0.78710544  1
  O  O408  1  0.58661643  0.44950089  0.03710544  1
  O  O409  1  0.58661643  0.44950089  0.28710544  1
  O  O410  1  0.58661643  0.44950089  0.53710544  1
  O  O411  1  0.58661643  0.44950089  0.78710544  1
  O  O412  1  0.58661643  0.94950089  0.03710544  1
  O  O413  1  0.58661643  0.94950089  0.28710544  1
  O  O414  1  0.58661643  0.94950089  0.53710544  1
  O  O415  1  0.58661643  0.94950089  0.78710544  1
  O  O416  1  0.33661643  0.30049911  0.03710544  1
  O  O417  1  0.33661643  0.30049911  0.28710544  1
  O  O418  1  0.33661643  0.30049911  0.53710544  1
  O  O419  1  0.33661643  0.30049911  0.78710544  1
  O  O420  1  0.33661643  0.80049911  0.03710544  1
  O  O421  1  0.33661643  0.80049911  0.28710544  1
  O  O422  1  0.33661643  0.80049911  0.53710544  1
  O  O423  1  0.33661643  0.80049911  0.78710544  1
  O  O424  1  0.83661643  0.30049911  0.03710544  1
  O  O425  1  0.83661643  0.30049911  0.28710544  1
  O  O426  1  0.83661643  0.30049911  0.53710544  1
  O  O427  1  0.83661643  0.30049911  0.78710544  1
  O  O428  1  0.83661643  0.80049911  0.03710544  1
  O  O429  1  0.83661643  0.80049911  0.28710544  1
  O  O430  1  0.83661643  0.80049911  0.53710544  1
  O  O431  1  0.83661643  0.80049911  0.78710544  1
  O  O432  1  0.16338357  0.19950089  0.16210544  1
  O  O433  1  0.16338357  0.19950089  0.41210544  1
  O  O434  1  0.16338357  0.19950089  0.66210544  1
  O  O435  1  0.16338357  0.19950089  0.91210544  1
  O  O436  1  0.16338357  0.69950089  0.16210544  1
  O  O437  1  0.16338357  0.69950089  0.41210544  1
  O  O438  1  0.16338357  0.69950089  0.66210544  1
  O  O439  1  0.16338357  0.69950089  0.91210544  1
  O  O440  1  0.66338357  0.19950089  0.16210544  1
  O  O441  1  0.66338357  0.19950089  0.41210544  1
  O  O442  1  0.66338357  0.19950089  0.66210544  1
  O  O443  1  0.66338357  0.19950089  0.91210544  1
  O  O444  1  0.66338357  0.69950089  0.16210544  1
  O  O445  1  0.66338357  0.69950089  0.41210544  1
  O  O446  1  0.66338357  0.69950089  0.66210544  1
  O  O447  1  0.66338357  0.69950089  0.91210544  1
