# generated using pymatgen
data_Ba3NaTaO6
_symmetry_space_group_name_H-M   'P 1'
_cell_length_a   10.25592273
_cell_length_b   10.25592273
_cell_length_c   11.90426668
_cell_angle_alpha   90.00000000
_cell_angle_beta   90.00000000
_cell_angle_gamma   120.00000000
_symmetry_Int_Tables_number   1
_chemical_formula_structural   Ba3NaTaO6
_chemical_formula_sum   'Ba18 Na6 Ta6 O36'
_cell_volume   1084.38314649
_cell_formula_units_Z   6
loop_
 _symmetry_equiv_pos_site_id
 _symmetry_equiv_pos_as_xyz
  1  'x, y, z'
loop_
 _atom_site_type_symbol
 _atom_site_label
 _atom_site_symmetry_multiplicity
 _atom_site_fract_x
 _atom_site_fract_y
 _atom_site_fract_z
 _atom_site_occupancy
  Ba  Ba0  1  -0.33333333  -0.31420533  0.58333333  1
  Ba  Ba1  1  0.33333333  0.01912801  0.91666667  1
  Ba  Ba2  1  -0.00000000  0.35246134  1.25000000  1
  Ba  Ba3  1  0.31420533  -0.01912801  0.58333333  1
  Ba  Ba4  1  0.98087199  0.31420533  0.91666667  1
  Ba  Ba5  1  0.64753866  0.64753866  1.25000000  1
  Ba  Ba6  1  -0.01912801  -0.33333333  0.41666667  1
  Ba  Ba7  1  0.64753866  0.00000000  0.75000000  1
  Ba  Ba8  1  0.31420533  0.33333333  1.08333333  1
  Ba  Ba9  1  0.33333333  0.31420533  0.41666667  1
  Ba  Ba10  1  1.00000000  0.64753866  0.75000000  1
  Ba  Ba11  1  0.66666667  0.98087199  1.08333333  1
  Ba  Ba12  1  -0.31420533  0.01912801  0.41666667  1
  Ba  Ba13  1  0.35246134  0.35246134  0.75000000  1
  Ba  Ba14  1  0.01912801  0.68579467  1.08333333  1
  Ba  Ba15  1  0.01912801  0.33333333  0.58333333  1
  Ba  Ba16  1  0.68579467  0.66666667  0.91666667  1
  Ba  Ba17  1  0.35246134  1.00000000  1.25000000  1
  Na  Na18  1  -0.00000000  -0.00000000  0.25000000  1
  Na  Na19  1  0.66666667  0.33333333  0.58333333  1
  Na  Na20  1  0.33333333  0.66666667  0.91666667  1
  Na  Na21  1  0.00000000  0.00000000  0.75000000  1
  Na  Na22  1  0.66666667  0.33333333  1.08333333  1
  Na  Na23  1  0.33333333  0.66666667  1.41666667  1
  Ta  Ta24  1  -0.00000000  -0.00000000  -0.00000000  1
  Ta  Ta25  1  0.66666667  0.33333333  0.33333333  1
  Ta  Ta26  1  0.33333333  0.66666667  0.66666667  1
  Ta  Ta27  1  0.00000000  0.00000000  0.50000000  1
  Ta  Ta28  1  0.66666667  0.33333333  0.83333333  1
  Ta  Ta29  1  0.33333333  0.66666667  1.16666667  1
  O  O30  1  -0.16858115  -0.14903595  0.40134709  1
  O  O31  1  0.49808551  0.18429738  0.73468043  1
  O  O32  1  0.16475218  0.51763072  1.06801376  1
  O  O33  1  0.14903595  -0.01954520  0.40134709  1
  O  O34  1  0.81570262  0.31378813  0.73468043  1
  O  O35  1  0.48236928  0.64712146  1.06801376  1
  O  O36  1  0.01954520  0.16858115  0.40134709  1
  O  O37  1  0.68621187  0.50191449  0.73468043  1
  O  O38  1  0.35287854  0.83524782  1.06801376  1
  O  O39  1  -0.35287854  -0.51763072  0.43198624  1
  O  O40  1  0.31378813  -0.18429738  0.76531957  1
  O  O41  1  -0.01954520  0.14903595  1.09865291  1
  O  O42  1  0.51763072  0.16475218  0.43198624  1
  O  O43  1  1.18429738  0.49808551  0.76531957  1
  O  O44  1  0.85096405  0.83141885  1.09865291  1
  O  O45  1  -0.16475218  0.35287854  0.43198624  1
  O  O46  1  0.50191449  0.68621187  0.76531957  1
  O  O47  1  0.16858115  1.01954520  1.09865291  1
  O  O48  1  0.16858115  0.14903595  0.59865291  1
  O  O49  1  0.83524782  0.48236928  0.93198624  1
  O  O50  1  0.50191449  0.81570262  1.26531957  1
  O  O51  1  -0.14903595  0.01954520  0.59865291  1
  O  O52  1  0.51763072  0.35287854  0.93198624  1
  O  O53  1  0.18429738  0.68621187  1.26531957  1
  O  O54  1  -0.01954520  -0.16858115  0.59865291  1
  O  O55  1  0.64712146  0.16475218  0.93198624  1
  O  O56  1  0.31378813  0.49808551  1.26531957  1
  O  O57  1  0.35287854  0.51763072  0.56801376  1
  O  O58  1  1.01954520  0.85096405  0.90134709  1
  O  O59  1  0.68621187  1.18429738  1.23468043  1
  O  O60  1  0.16475218  -0.35287854  0.56801376  1
  O  O61  1  0.83141885  -0.01954520  0.90134709  1
  O  O62  1  0.49808551  0.31378813  1.23468043  1
  O  O63  1  -0.51763072  -0.16475218  0.56801376  1
  O  O64  1  0.14903595  0.16858115  0.90134709  1
  O  O65  1  -0.18429738  0.50191449  1.23468043  1
