# generated using pymatgen
data_PtO2
_symmetry_space_group_name_H-M   'P 1'
_cell_length_a   8.92295346
_cell_length_b   9.09539695
_cell_length_c   9.44799087
_cell_angle_alpha   90.00000000
_cell_angle_beta   90.00000000
_cell_angle_gamma   90.00000000
_symmetry_Int_Tables_number   1
_chemical_formula_structural   PtO2
_chemical_formula_sum   'Pt24 O48'
_cell_volume   766.77818856
_cell_formula_units_Z   24
loop_
 _symmetry_equiv_pos_site_id
 _symmetry_equiv_pos_as_xyz
  1  'x, y, z'
loop_
 _atom_site_type_symbol
 _atom_site_label
 _atom_site_symmetry_multiplicity
 _atom_site_fract_x
 _atom_site_fract_y
 _atom_site_fract_z
 _atom_site_occupancy
  Pt  Pt0  1  0.00000000  0.00000000  0.00000000  1
  Pt  Pt1  1  0.00000000  0.00000000  0.33333333  1
  Pt  Pt2  1  0.00000000  0.00000000  0.66666667  1
  Pt  Pt3  1  0.00000000  0.50000000  0.00000000  1
  Pt  Pt4  1  0.00000000  0.50000000  0.33333333  1
  Pt  Pt5  1  0.00000000  0.50000000  0.66666667  1
  Pt  Pt6  1  0.50000000  0.00000000  0.00000000  1
  Pt  Pt7  1  0.50000000  0.00000000  0.33333333  1
  Pt  Pt8  1  0.50000000  0.00000000  0.66666667  1
  Pt  Pt9  1  0.50000000  0.50000000  0.00000000  1
  Pt  Pt10  1  0.50000000  0.50000000  0.33333333  1
  Pt  Pt11  1  0.50000000  0.50000000  0.66666667  1
  Pt  Pt12  1  0.25000000  0.25000000  0.16666667  1
  Pt  Pt13  1  0.25000000  0.25000000  0.50000000  1
  Pt  Pt14  1  0.25000000  0.25000000  0.83333333  1
  Pt  Pt15  1  0.25000000  0.75000000  0.16666667  1
  Pt  Pt16  1  0.25000000  0.75000000  0.50000000  1
  Pt  Pt17  1  0.25000000  0.75000000  0.83333333  1
  Pt  Pt18  1  0.75000000  0.25000000  0.16666667  1
  Pt  Pt19  1  0.75000000  0.25000000  0.50000000  1
  Pt  Pt20  1  0.75000000  0.25000000  0.83333333  1
  Pt  Pt21  1  0.75000000  0.75000000  0.16666667  1
  Pt  Pt22  1  0.75000000  0.75000000  0.50000000  1
  Pt  Pt23  1  0.75000000  0.75000000  0.83333333  1
  O  O24  1  0.18176622  0.12943707  0.00000000  1
  O  O25  1  0.18176622  0.12943707  0.33333333  1
  O  O26  1  0.18176622  0.12943707  0.66666667  1
  O  O27  1  0.18176622  0.62943707  0.00000000  1
  O  O28  1  0.18176622  0.62943707  0.33333333  1
  O  O29  1  0.18176622  0.62943707  0.66666667  1
  O  O30  1  0.68176622  0.12943707  0.00000000  1
  O  O31  1  0.68176622  0.12943707  0.33333333  1
  O  O32  1  0.68176622  0.12943707  0.66666667  1
  O  O33  1  0.68176622  0.62943707  0.00000000  1
  O  O34  1  0.68176622  0.62943707  0.33333333  1
  O  O35  1  0.68176622  0.62943707  0.66666667  1
  O  O36  1  0.31823378  0.37056293  0.00000000  1
  O  O37  1  0.31823378  0.37056293  0.33333333  1
  O  O38  1  0.31823378  0.37056293  0.66666667  1
  O  O39  1  0.31823378  0.87056293  0.00000000  1
  O  O40  1  0.31823378  0.87056293  0.33333333  1
  O  O41  1  0.31823378  0.87056293  0.66666667  1
  O  O42  1  0.81823378  0.37056293  0.00000000  1
  O  O43  1  0.81823378  0.37056293  0.33333333  1
  O  O44  1  0.81823378  0.37056293  0.66666667  1
  O  O45  1  0.81823378  0.87056293  0.00000000  1
  O  O46  1  0.81823378  0.87056293  0.33333333  1
  O  O47  1  0.81823378  0.87056293  0.66666667  1
  O  O48  1  0.06823378  0.37943707  0.16666667  1
  O  O49  1  0.06823378  0.37943707  0.50000000  1
  O  O50  1  0.06823378  0.37943707  0.83333333  1
  O  O51  1  0.06823378  0.87943707  0.16666667  1
  O  O52  1  0.06823378  0.87943707  0.50000000  1
  O  O53  1  0.06823378  0.87943707  0.83333333  1
  O  O54  1  0.56823378  0.37943707  0.16666667  1
  O  O55  1  0.56823378  0.37943707  0.50000000  1
  O  O56  1  0.56823378  0.37943707  0.83333333  1
  O  O57  1  0.56823378  0.87943707  0.16666667  1
  O  O58  1  0.56823378  0.87943707  0.50000000  1
  O  O59  1  0.56823378  0.87943707  0.83333333  1
  O  O60  1  0.43176622  0.12056293  0.16666667  1
  O  O61  1  0.43176622  0.12056293  0.50000000  1
  O  O62  1  0.43176622  0.12056293  0.83333333  1
  O  O63  1  0.43176622  0.62056293  0.16666667  1
  O  O64  1  0.43176622  0.62056293  0.50000000  1
  O  O65  1  0.43176622  0.62056293  0.83333333  1
  O  O66  1  0.93176622  0.12056293  0.16666667  1
  O  O67  1  0.93176622  0.12056293  0.50000000  1
  O  O68  1  0.93176622  0.12056293  0.83333333  1
  O  O69  1  0.93176622  0.62056293  0.16666667  1
  O  O70  1  0.93176622  0.62056293  0.50000000  1
  O  O71  1  0.93176622  0.62056293  0.83333333  1
