# generated using pymatgen
data_Rb2Sn2O3
_symmetry_space_group_name_H-M   'P 1'
_cell_length_a   12.24091366
_cell_length_b   12.24091366
_cell_length_c   14.87417149
_cell_angle_alpha   90.00000000
_cell_angle_beta   90.00000000
_cell_angle_gamma   120.00000000
_symmetry_Int_Tables_number   1
_chemical_formula_structural   Rb2Sn2O3
_chemical_formula_sum   'Rb24 Sn24 O36'
_cell_volume   1930.15010641
_cell_formula_units_Z   12
loop_
 _symmetry_equiv_pos_site_id
 _symmetry_equiv_pos_as_xyz
  1  'x, y, z'
loop_
 _atom_site_type_symbol
 _atom_site_label
 _atom_site_symmetry_multiplicity
 _atom_site_fract_x
 _atom_site_fract_y
 _atom_site_fract_z
 _atom_site_occupancy
  Rb  Rb0  1  -0.00000000  -0.00000000  0.50000000  1
  Rb  Rb1  1  -0.00000000  0.50000000  0.50000000  1
  Rb  Rb2  1  0.50000000  -0.00000000  0.50000000  1
  Rb  Rb3  1  0.50000000  0.50000000  0.50000000  1
  Rb  Rb4  1  0.33333333  0.16666667  0.83333333  1
  Rb  Rb5  1  0.33333333  0.66666667  0.83333333  1
  Rb  Rb6  1  0.83333333  0.16666667  0.83333333  1
  Rb  Rb7  1  0.83333333  0.66666667  0.83333333  1
  Rb  Rb8  1  0.16666667  0.33333333  1.16666667  1
  Rb  Rb9  1  0.16666667  0.83333333  1.16666667  1
  Rb  Rb10  1  0.66666667  0.33333333  1.16666667  1
  Rb  Rb11  1  0.66666667  0.83333333  1.16666667  1
  Rb  Rb12  1  -0.00000000  -0.00000000  -0.00000000  1
  Rb  Rb13  1  0.00000000  0.50000000  -0.00000000  1
  Rb  Rb14  1  0.50000000  -0.00000000  -0.00000000  1
  Rb  Rb15  1  0.50000000  0.50000000  -0.00000000  1
  Rb  Rb16  1  0.33333333  0.16666667  0.33333333  1
  Rb  Rb17  1  0.33333333  0.66666667  0.33333333  1
  Rb  Rb18  1  0.83333333  0.16666667  0.33333333  1
  Rb  Rb19  1  0.83333333  0.66666667  0.33333333  1
  Rb  Rb20  1  0.16666667  0.33333333  0.66666667  1
  Rb  Rb21  1  0.16666667  0.83333333  0.66666667  1
  Rb  Rb22  1  0.66666667  0.33333333  0.66666667  1
  Rb  Rb23  1  0.66666667  0.83333333  0.66666667  1
  Sn  Sn24  1  -0.00000000  0.00000000  0.23762551  1
  Sn  Sn25  1  0.00000000  0.50000000  0.23762551  1
  Sn  Sn26  1  0.50000000  0.00000000  0.23762551  1
  Sn  Sn27  1  0.50000000  0.50000000  0.23762551  1
  Sn  Sn28  1  0.33333333  0.16666667  0.57095885  1
  Sn  Sn29  1  0.33333333  0.66666667  0.57095885  1
  Sn  Sn30  1  0.83333333  0.16666667  0.57095885  1
  Sn  Sn31  1  0.83333333  0.66666667  0.57095885  1
  Sn  Sn32  1  0.16666667  0.33333333  0.90429218  1
  Sn  Sn33  1  0.16666667  0.83333333  0.90429218  1
  Sn  Sn34  1  0.66666667  0.33333333  0.90429218  1
  Sn  Sn35  1  0.66666667  0.83333333  0.90429218  1
  Sn  Sn36  1  0.00000000  0.00000000  0.76237449  1
  Sn  Sn37  1  0.00000000  0.50000000  0.76237449  1
  Sn  Sn38  1  0.50000000  0.00000000  0.76237449  1
  Sn  Sn39  1  0.50000000  0.50000000  0.76237449  1
  Sn  Sn40  1  0.33333333  0.16666667  1.09570782  1
  Sn  Sn41  1  0.33333333  0.66666667  1.09570782  1
  Sn  Sn42  1  0.83333333  0.16666667  1.09570782  1
  Sn  Sn43  1  0.83333333  0.66666667  1.09570782  1
  Sn  Sn44  1  0.16666667  0.33333333  1.42904115  1
  Sn  Sn45  1  0.16666667  0.83333333  1.42904115  1
  Sn  Sn46  1  0.66666667  0.33333333  1.42904115  1
  Sn  Sn47  1  0.66666667  0.83333333  1.42904115  1
  O  O48  1  0.16666667  0.08333333  0.16666667  1
  O  O49  1  0.16666667  0.58333333  0.16666667  1
  O  O50  1  0.66666667  0.08333333  0.16666667  1
  O  O51  1  0.66666667  0.58333333  0.16666667  1
  O  O52  1  0.50000000  0.25000000  0.50000000  1
  O  O53  1  0.50000000  0.75000000  0.50000000  1
  O  O54  1  1.00000000  0.25000000  0.50000000  1
  O  O55  1  1.00000000  0.75000000  0.50000000  1
  O  O56  1  0.33333333  0.41666667  0.83333333  1
  O  O57  1  0.33333333  0.91666667  0.83333333  1
  O  O58  1  0.83333333  0.41666667  0.83333333  1
  O  O59  1  0.83333333  0.91666667  0.83333333  1
  O  O60  1  -0.08333333  -0.16666667  0.16666667  1
  O  O61  1  -0.08333333  0.33333333  0.16666667  1
  O  O62  1  0.41666667  -0.16666667  0.16666667  1
  O  O63  1  0.41666667  0.33333333  0.16666667  1
  O  O64  1  0.25000000  -0.00000000  0.50000000  1
  O  O65  1  0.25000000  0.50000000  0.50000000  1
  O  O66  1  0.75000000  -0.00000000  0.50000000  1
  O  O67  1  0.75000000  0.50000000  0.50000000  1
  O  O68  1  0.08333333  0.16666667  0.83333333  1
  O  O69  1  0.08333333  0.66666667  0.83333333  1
  O  O70  1  0.58333333  0.16666667  0.83333333  1
  O  O71  1  0.58333333  0.66666667  0.83333333  1
  O  O72  1  -0.08333333  0.08333333  0.16666667  1
  O  O73  1  -0.08333333  0.58333333  0.16666667  1
  O  O74  1  0.41666667  0.08333333  0.16666667  1
  O  O75  1  0.41666667  0.58333333  0.16666667  1
  O  O76  1  0.25000000  0.25000000  0.50000000  1
  O  O77  1  0.25000000  0.75000000  0.50000000  1
  O  O78  1  0.75000000  0.25000000  0.50000000  1
  O  O79  1  0.75000000  0.75000000  0.50000000  1
  O  O80  1  0.08333333  0.41666667  0.83333333  1
  O  O81  1  0.08333333  0.91666667  0.83333333  1
  O  O82  1  0.58333333  0.41666667  0.83333333  1
  O  O83  1  0.58333333  0.91666667  0.83333333  1
