# generated using pymatgen
data_KYO2
_symmetry_space_group_name_H-M   'P 1'
_cell_length_a   17.21911755
_cell_length_b   17.21911755
_cell_length_c   18.58457125
_cell_angle_alpha   90.00000000
_cell_angle_beta   90.00000000
_cell_angle_gamma   120.00000000
_symmetry_Int_Tables_number   1
_chemical_formula_structural   KYO2
_chemical_formula_sum   'K75 Y75 O150'
_cell_volume   4772.04971470
_cell_formula_units_Z   75
loop_
 _symmetry_equiv_pos_site_id
 _symmetry_equiv_pos_as_xyz
  1  'x, y, z'
loop_
 _atom_site_type_symbol
 _atom_site_label
 _atom_site_symmetry_multiplicity
 _atom_site_fract_x
 _atom_site_fract_y
 _atom_site_fract_z
 _atom_site_occupancy
  K  K0  1  -0.00000000  -0.00000000  -0.00000000  1
  K  K1  1  0.00000000  0.20000000  -0.00000000  1
  K  K2  1  0.00000000  0.40000000  -0.00000000  1
  K  K3  1  0.00000000  0.60000000  -0.00000000  1
  K  K4  1  0.00000000  0.80000000  -0.00000000  1
  K  K5  1  0.20000000  -0.00000000  -0.00000000  1
  K  K6  1  0.20000000  0.20000000  -0.00000000  1
  K  K7  1  0.20000000  0.40000000  -0.00000000  1
  K  K8  1  0.20000000  0.60000000  -0.00000000  1
  K  K9  1  0.20000000  0.80000000  -0.00000000  1
  K  K10  1  0.40000000  -0.00000000  -0.00000000  1
  K  K11  1  0.40000000  0.20000000  -0.00000000  1
  K  K12  1  0.40000000  0.40000000  -0.00000000  1
  K  K13  1  0.40000000  0.60000000  -0.00000000  1
  K  K14  1  0.40000000  0.80000000  -0.00000000  1
  K  K15  1  0.60000000  -0.00000000  -0.00000000  1
  K  K16  1  0.60000000  0.20000000  -0.00000000  1
  K  K17  1  0.60000000  0.40000000  -0.00000000  1
  K  K18  1  0.60000000  0.60000000  -0.00000000  1
  K  K19  1  0.60000000  0.80000000  -0.00000000  1
  K  K20  1  0.80000000  -0.00000000  -0.00000000  1
  K  K21  1  0.80000000  0.20000000  -0.00000000  1
  K  K22  1  0.80000000  0.40000000  -0.00000000  1
  K  K23  1  0.80000000  0.60000000  -0.00000000  1
  K  K24  1  0.80000000  0.80000000  -0.00000000  1
  K  K25  1  0.13333333  0.06666667  0.33333333  1
  K  K26  1  0.13333333  0.26666667  0.33333333  1
  K  K27  1  0.13333333  0.46666667  0.33333333  1
  K  K28  1  0.13333333  0.66666667  0.33333333  1
  K  K29  1  0.13333333  0.86666667  0.33333333  1
  K  K30  1  0.33333333  0.06666667  0.33333333  1
  K  K31  1  0.33333333  0.26666667  0.33333333  1
  K  K32  1  0.33333333  0.46666667  0.33333333  1
  K  K33  1  0.33333333  0.66666667  0.33333333  1
  K  K34  1  0.33333333  0.86666667  0.33333333  1
  K  K35  1  0.53333333  0.06666667  0.33333333  1
  K  K36  1  0.53333333  0.26666667  0.33333333  1
  K  K37  1  0.53333333  0.46666667  0.33333333  1
  K  K38  1  0.53333333  0.66666667  0.33333333  1
  K  K39  1  0.53333333  0.86666667  0.33333333  1
  K  K40  1  0.73333333  0.06666667  0.33333333  1
  K  K41  1  0.73333333  0.26666667  0.33333333  1
  K  K42  1  0.73333333  0.46666667  0.33333333  1
  K  K43  1  0.73333333  0.66666667  0.33333333  1
  K  K44  1  0.73333333  0.86666667  0.33333333  1
  K  K45  1  0.93333333  0.06666667  0.33333333  1
  K  K46  1  0.93333333  0.26666667  0.33333333  1
  K  K47  1  0.93333333  0.46666667  0.33333333  1
  K  K48  1  0.93333333  0.66666667  0.33333333  1
  K  K49  1  0.93333333  0.86666667  0.33333333  1
  K  K50  1  0.06666667  0.13333333  0.66666667  1
  K  K51  1  0.06666667  0.33333333  0.66666667  1
  K  K52  1  0.06666667  0.53333333  0.66666667  1
  K  K53  1  0.06666667  0.73333333  0.66666667  1
  K  K54  1  0.06666667  0.93333333  0.66666667  1
  K  K55  1  0.26666667  0.13333333  0.66666667  1
  K  K56  1  0.26666667  0.33333333  0.66666667  1
  K  K57  1  0.26666667  0.53333333  0.66666667  1
  K  K58  1  0.26666667  0.73333333  0.66666667  1
  K  K59  1  0.26666667  0.93333333  0.66666667  1
  K  K60  1  0.46666667  0.13333333  0.66666667  1
  K  K61  1  0.46666667  0.33333333  0.66666667  1
  K  K62  1  0.46666667  0.53333333  0.66666667  1
  K  K63  1  0.46666667  0.73333333  0.66666667  1
  K  K64  1  0.46666667  0.93333333  0.66666667  1
  K  K65  1  0.66666667  0.13333333  0.66666667  1
  K  K66  1  0.66666667  0.33333333  0.66666667  1
  K  K67  1  0.66666667  0.53333333  0.66666667  1
  K  K68  1  0.66666667  0.73333333  0.66666667  1
  K  K69  1  0.66666667  0.93333333  0.66666667  1
  K  K70  1  0.86666667  0.13333333  0.66666667  1
  K  K71  1  0.86666667  0.33333333  0.66666667  1
  K  K72  1  0.86666667  0.53333333  0.66666667  1
  K  K73  1  0.86666667  0.73333333  0.66666667  1
  K  K74  1  0.86666667  0.93333333  0.66666667  1
  Y  Y75  1  -0.00000000  -0.00000000  0.50000000  1
  Y  Y76  1  -0.00000000  0.20000000  0.50000000  1
  Y  Y77  1  -0.00000000  0.40000000  0.50000000  1
  Y  Y78  1  -0.00000000  0.60000000  0.50000000  1
  Y  Y79  1  -0.00000000  0.80000000  0.50000000  1
  Y  Y80  1  0.20000000  -0.00000000  0.50000000  1
  Y  Y81  1  0.20000000  0.20000000  0.50000000  1
  Y  Y82  1  0.20000000  0.40000000  0.50000000  1
  Y  Y83  1  0.20000000  0.60000000  0.50000000  1
  Y  Y84  1  0.20000000  0.80000000  0.50000000  1
  Y  Y85  1  0.40000000  -0.00000000  0.50000000  1
  Y  Y86  1  0.40000000  0.20000000  0.50000000  1
  Y  Y87  1  0.40000000  0.40000000  0.50000000  1
  Y  Y88  1  0.40000000  0.60000000  0.50000000  1
  Y  Y89  1  0.40000000  0.80000000  0.50000000  1
  Y  Y90  1  0.60000000  -0.00000000  0.50000000  1
  Y  Y91  1  0.60000000  0.20000000  0.50000000  1
  Y  Y92  1  0.60000000  0.40000000  0.50000000  1
  Y  Y93  1  0.60000000  0.60000000  0.50000000  1
  Y  Y94  1  0.60000000  0.80000000  0.50000000  1
  Y  Y95  1  0.80000000  -0.00000000  0.50000000  1
  Y  Y96  1  0.80000000  0.20000000  0.50000000  1
  Y  Y97  1  0.80000000  0.40000000  0.50000000  1
  Y  Y98  1  0.80000000  0.60000000  0.50000000  1
  Y  Y99  1  0.80000000  0.80000000  0.50000000  1
  Y  Y100  1  0.13333333  0.06666667  0.83333333  1
  Y  Y101  1  0.13333333  0.26666667  0.83333333  1
  Y  Y102  1  0.13333333  0.46666667  0.83333333  1
  Y  Y103  1  0.13333333  0.66666667  0.83333333  1
  Y  Y104  1  0.13333333  0.86666667  0.83333333  1
  Y  Y105  1  0.33333333  0.06666667  0.83333333  1
  Y  Y106  1  0.33333333  0.26666667  0.83333333  1
  Y  Y107  1  0.33333333  0.46666667  0.83333333  1
  Y  Y108  1  0.33333333  0.66666667  0.83333333  1
  Y  Y109  1  0.33333333  0.86666667  0.83333333  1
  Y  Y110  1  0.53333333  0.06666667  0.83333333  1
  Y  Y111  1  0.53333333  0.26666667  0.83333333  1
  Y  Y112  1  0.53333333  0.46666667  0.83333333  1
  Y  Y113  1  0.53333333  0.66666667  0.83333333  1
  Y  Y114  1  0.53333333  0.86666667  0.83333333  1
  Y  Y115  1  0.73333333  0.06666667  0.83333333  1
  Y  Y116  1  0.73333333  0.26666667  0.83333333  1
  Y  Y117  1  0.73333333  0.46666667  0.83333333  1
  Y  Y118  1  0.73333333  0.66666667  0.83333333  1
  Y  Y119  1  0.73333333  0.86666667  0.83333333  1
  Y  Y120  1  0.93333333  0.06666667  0.83333333  1
  Y  Y121  1  0.93333333  0.26666667  0.83333333  1
  Y  Y122  1  0.93333333  0.46666667  0.83333333  1
  Y  Y123  1  0.93333333  0.66666667  0.83333333  1
  Y  Y124  1  0.93333333  0.86666667  0.83333333  1
  Y  Y125  1  0.06666667  0.13333333  1.16666667  1
  Y  Y126  1  0.06666667  0.33333333  1.16666667  1
  Y  Y127  1  0.06666667  0.53333333  1.16666667  1
  Y  Y128  1  0.06666667  0.73333333  1.16666667  1
  Y  Y129  1  0.06666667  0.93333333  1.16666667  1
  Y  Y130  1  0.26666667  0.13333333  1.16666667  1
  Y  Y131  1  0.26666667  0.33333333  1.16666667  1
  Y  Y132  1  0.26666667  0.53333333  1.16666667  1
  Y  Y133  1  0.26666667  0.73333333  1.16666667  1
  Y  Y134  1  0.26666667  0.93333333  1.16666667  1
  Y  Y135  1  0.46666667  0.13333333  1.16666667  1
  Y  Y136  1  0.46666667  0.33333333  1.16666667  1
  Y  Y137  1  0.46666667  0.53333333  1.16666667  1
  Y  Y138  1  0.46666667  0.73333333  1.16666667  1
  Y  Y139  1  0.46666667  0.93333333  1.16666667  1
  Y  Y140  1  0.66666667  0.13333333  1.16666667  1
  Y  Y141  1  0.66666667  0.33333333  1.16666667  1
  Y  Y142  1  0.66666667  0.53333333  1.16666667  1
  Y  Y143  1  0.66666667  0.73333333  1.16666667  1
  Y  Y144  1  0.66666667  0.93333333  1.16666667  1
  Y  Y145  1  0.86666667  0.13333333  1.16666667  1
  Y  Y146  1  0.86666667  0.33333333  1.16666667  1
  Y  Y147  1  0.86666667  0.53333333  1.16666667  1
  Y  Y148  1  0.86666667  0.73333333  1.16666667  1
  Y  Y149  1  0.86666667  0.93333333  1.16666667  1
  O  O150  1  0.00000000  -0.00000000  0.22815164  1
  O  O151  1  0.00000000  0.20000000  0.22815164  1
  O  O152  1  0.00000000  0.40000000  0.22815164  1
  O  O153  1  0.00000000  0.60000000  0.22815164  1
  O  O154  1  0.00000000  0.80000000  0.22815164  1
  O  O155  1  0.20000000  -0.00000000  0.22815164  1
  O  O156  1  0.20000000  0.20000000  0.22815164  1
  O  O157  1  0.20000000  0.40000000  0.22815164  1
  O  O158  1  0.20000000  0.60000000  0.22815164  1
  O  O159  1  0.20000000  0.80000000  0.22815164  1
  O  O160  1  0.40000000  -0.00000000  0.22815164  1
  O  O161  1  0.40000000  0.20000000  0.22815164  1
  O  O162  1  0.40000000  0.40000000  0.22815164  1
  O  O163  1  0.40000000  0.60000000  0.22815164  1
  O  O164  1  0.40000000  0.80000000  0.22815164  1
  O  O165  1  0.60000000  -0.00000000  0.22815164  1
  O  O166  1  0.60000000  0.20000000  0.22815164  1
  O  O167  1  0.60000000  0.40000000  0.22815164  1
  O  O168  1  0.60000000  0.60000000  0.22815164  1
  O  O169  1  0.60000000  0.80000000  0.22815164  1
  O  O170  1  0.80000000  -0.00000000  0.22815164  1
  O  O171  1  0.80000000  0.20000000  0.22815164  1
  O  O172  1  0.80000000  0.40000000  0.22815164  1
  O  O173  1  0.80000000  0.60000000  0.22815164  1
  O  O174  1  0.80000000  0.80000000  0.22815164  1
  O  O175  1  0.13333333  0.06666667  0.56148497  1
  O  O176  1  0.13333333  0.26666667  0.56148497  1
  O  O177  1  0.13333333  0.46666667  0.56148497  1
  O  O178  1  0.13333333  0.66666667  0.56148497  1
  O  O179  1  0.13333333  0.86666667  0.56148497  1
  O  O180  1  0.33333333  0.06666667  0.56148497  1
  O  O181  1  0.33333333  0.26666667  0.56148497  1
  O  O182  1  0.33333333  0.46666667  0.56148497  1
  O  O183  1  0.33333333  0.66666667  0.56148497  1
  O  O184  1  0.33333333  0.86666667  0.56148497  1
  O  O185  1  0.53333333  0.06666667  0.56148497  1
  O  O186  1  0.53333333  0.26666667  0.56148497  1
  O  O187  1  0.53333333  0.46666667  0.56148497  1
  O  O188  1  0.53333333  0.66666667  0.56148497  1
  O  O189  1  0.53333333  0.86666667  0.56148497  1
  O  O190  1  0.73333333  0.06666667  0.56148497  1
  O  O191  1  0.73333333  0.26666667  0.56148497  1
  O  O192  1  0.73333333  0.46666667  0.56148497  1
  O  O193  1  0.73333333  0.66666667  0.56148497  1
  O  O194  1  0.73333333  0.86666667  0.56148497  1
  O  O195  1  0.93333333  0.06666667  0.56148497  1
  O  O196  1  0.93333333  0.26666667  0.56148497  1
  O  O197  1  0.93333333  0.46666667  0.56148497  1
  O  O198  1  0.93333333  0.66666667  0.56148497  1
  O  O199  1  0.93333333  0.86666667  0.56148497  1
  O  O200  1  0.06666667  0.13333333  0.89481830  1
  O  O201  1  0.06666667  0.33333333  0.89481830  1
  O  O202  1  0.06666667  0.53333333  0.89481830  1
  O  O203  1  0.06666667  0.73333333  0.89481830  1
  O  O204  1  0.06666667  0.93333333  0.89481830  1
  O  O205  1  0.26666667  0.13333333  0.89481830  1
  O  O206  1  0.26666667  0.33333333  0.89481830  1
  O  O207  1  0.26666667  0.53333333  0.89481830  1
  O  O208  1  0.26666667  0.73333333  0.89481830  1
  O  O209  1  0.26666667  0.93333333  0.89481830  1
  O  O210  1  0.46666667  0.13333333  0.89481830  1
  O  O211  1  0.46666667  0.33333333  0.89481830  1
  O  O212  1  0.46666667  0.53333333  0.89481830  1
  O  O213  1  0.46666667  0.73333333  0.89481830  1
  O  O214  1  0.46666667  0.93333333  0.89481830  1
  O  O215  1  0.66666667  0.13333333  0.89481830  1
  O  O216  1  0.66666667  0.33333333  0.89481830  1
  O  O217  1  0.66666667  0.53333333  0.89481830  1
  O  O218  1  0.66666667  0.73333333  0.89481830  1
  O  O219  1  0.66666667  0.93333333  0.89481830  1
  O  O220  1  0.86666667  0.13333333  0.89481830  1
  O  O221  1  0.86666667  0.33333333  0.89481830  1
  O  O222  1  0.86666667  0.53333333  0.89481830  1
  O  O223  1  0.86666667  0.73333333  0.89481830  1
  O  O224  1  0.86666667  0.93333333  0.89481830  1
  O  O225  1  -0.00000000  -0.00000000  0.77184836  1
  O  O226  1  0.00000000  0.20000000  0.77184836  1
  O  O227  1  0.00000000  0.40000000  0.77184836  1
  O  O228  1  0.00000000  0.60000000  0.77184836  1
  O  O229  1  0.00000000  0.80000000  0.77184836  1
  O  O230  1  0.20000000  -0.00000000  0.77184836  1
  O  O231  1  0.20000000  0.20000000  0.77184836  1
  O  O232  1  0.20000000  0.40000000  0.77184836  1
  O  O233  1  0.20000000  0.60000000  0.77184836  1
  O  O234  1  0.20000000  0.80000000  0.77184836  1
  O  O235  1  0.40000000  -0.00000000  0.77184836  1
  O  O236  1  0.40000000  0.20000000  0.77184836  1
  O  O237  1  0.40000000  0.40000000  0.77184836  1
  O  O238  1  0.40000000  0.60000000  0.77184836  1
  O  O239  1  0.40000000  0.80000000  0.77184836  1
  O  O240  1  0.60000000  -0.00000000  0.77184836  1
  O  O241  1  0.60000000  0.20000000  0.77184836  1
  O  O242  1  0.60000000  0.40000000  0.77184836  1
  O  O243  1  0.60000000  0.60000000  0.77184836  1
  O  O244  1  0.60000000  0.80000000  0.77184836  1
  O  O245  1  0.80000000  -0.00000000  0.77184836  1
  O  O246  1  0.80000000  0.20000000  0.77184836  1
  O  O247  1  0.80000000  0.40000000  0.77184836  1
  O  O248  1  0.80000000  0.60000000  0.77184836  1
  O  O249  1  0.80000000  0.80000000  0.77184836  1
  O  O250  1  0.13333333  0.06666667  1.10518170  1
  O  O251  1  0.13333333  0.26666667  1.10518170  1
  O  O252  1  0.13333333  0.46666667  1.10518170  1
  O  O253  1  0.13333333  0.66666667  1.10518170  1
  O  O254  1  0.13333333  0.86666667  1.10518170  1
  O  O255  1  0.33333333  0.06666667  1.10518170  1
  O  O256  1  0.33333333  0.26666667  1.10518170  1
  O  O257  1  0.33333333  0.46666667  1.10518170  1
  O  O258  1  0.33333333  0.66666667  1.10518170  1
  O  O259  1  0.33333333  0.86666667  1.10518170  1
  O  O260  1  0.53333333  0.06666667  1.10518170  1
  O  O261  1  0.53333333  0.26666667  1.10518170  1
  O  O262  1  0.53333333  0.46666667  1.10518170  1
  O  O263  1  0.53333333  0.66666667  1.10518170  1
  O  O264  1  0.53333333  0.86666667  1.10518170  1
  O  O265  1  0.73333333  0.06666667  1.10518170  1
  O  O266  1  0.73333333  0.26666667  1.10518170  1
  O  O267  1  0.73333333  0.46666667  1.10518170  1
  O  O268  1  0.73333333  0.66666667  1.10518170  1
  O  O269  1  0.73333333  0.86666667  1.10518170  1
  O  O270  1  0.93333333  0.06666667  1.10518170  1
  O  O271  1  0.93333333  0.26666667  1.10518170  1
  O  O272  1  0.93333333  0.46666667  1.10518170  1
  O  O273  1  0.93333333  0.66666667  1.10518170  1
  O  O274  1  0.93333333  0.86666667  1.10518170  1
  O  O275  1  0.06666667  0.13333333  1.43851503  1
  O  O276  1  0.06666667  0.33333333  1.43851503  1
  O  O277  1  0.06666667  0.53333333  1.43851503  1
  O  O278  1  0.06666667  0.73333333  1.43851503  1
  O  O279  1  0.06666667  0.93333333  1.43851503  1
  O  O280  1  0.26666667  0.13333333  1.43851503  1
  O  O281  1  0.26666667  0.33333333  1.43851503  1
  O  O282  1  0.26666667  0.53333333  1.43851503  1
  O  O283  1  0.26666667  0.73333333  1.43851503  1
  O  O284  1  0.26666667  0.93333333  1.43851503  1
  O  O285  1  0.46666667  0.13333333  1.43851503  1
  O  O286  1  0.46666667  0.33333333  1.43851503  1
  O  O287  1  0.46666667  0.53333333  1.43851503  1
  O  O288  1  0.46666667  0.73333333  1.43851503  1
  O  O289  1  0.46666667  0.93333333  1.43851503  1
  O  O290  1  0.66666667  0.13333333  1.43851503  1
  O  O291  1  0.66666667  0.33333333  1.43851503  1
  O  O292  1  0.66666667  0.53333333  1.43851503  1
  O  O293  1  0.66666667  0.73333333  1.43851503  1
  O  O294  1  0.66666667  0.93333333  1.43851503  1
  O  O295  1  0.86666667  0.13333333  1.43851503  1
  O  O296  1  0.86666667  0.33333333  1.43851503  1
  O  O297  1  0.86666667  0.53333333  1.43851503  1
  O  O298  1  0.86666667  0.73333333  1.43851503  1
  O  O299  1  0.86666667  0.93333333  1.43851503  1
