# generated using pymatgen
data_Rb2Li3GaO4
_symmetry_space_group_name_H-M   'P 1'
_cell_length_a   9.79872883
_cell_length_b   9.73180324
_cell_length_c   11.30528826
_cell_angle_alpha   90.00000000
_cell_angle_beta   90.00000000
_cell_angle_gamma   90.00000000
_symmetry_Int_Tables_number   1
_chemical_formula_structural   Rb2Li3GaO4
_chemical_formula_sum   'Rb16 Li24 Ga8 O32'
_cell_volume   1078.06438671
_cell_formula_units_Z   8
loop_
 _symmetry_equiv_pos_site_id
 _symmetry_equiv_pos_as_xyz
  1  'x, y, z'
loop_
 _atom_site_type_symbol
 _atom_site_label
 _atom_site_symmetry_multiplicity
 _atom_site_fract_x
 _atom_site_fract_y
 _atom_site_fract_z
 _atom_site_occupancy
  Rb  Rb0  1  0.11659563  0.12923488  -0.00000000  1
  Rb  Rb1  1  0.61659563  0.12923488  -0.00000000  1
  Rb  Rb2  1  0.36659563  0.62923488  0.50000000  1
  Rb  Rb3  1  0.86659563  0.62923488  0.50000000  1
  Rb  Rb4  1  0.13340437  0.37076512  0.50000000  1
  Rb  Rb5  1  0.63340437  0.37076512  0.50000000  1
  Rb  Rb6  1  0.38340437  0.87076512  1.00000000  1
  Rb  Rb7  1  0.88340437  0.87076512  1.00000000  1
  Rb  Rb8  1  0.13340437  0.62923488  -0.00000000  1
  Rb  Rb9  1  0.63340437  0.62923488  -0.00000000  1
  Rb  Rb10  1  0.38340437  1.12923488  0.50000000  1
  Rb  Rb11  1  0.88340437  1.12923488  0.50000000  1
  Rb  Rb12  1  0.11659563  -0.12923488  0.50000000  1
  Rb  Rb13  1  0.61659563  -0.12923488  0.50000000  1
  Rb  Rb14  1  0.36659563  0.37076512  1.00000000  1
  Rb  Rb15  1  0.86659563  0.37076512  1.00000000  1
  Li  Li16  1  0.00000000  0.24007792  0.25000000  1
  Li  Li17  1  0.50000000  0.24007792  0.25000000  1
  Li  Li18  1  0.25000000  0.74007792  0.75000000  1
  Li  Li19  1  0.75000000  0.74007792  0.75000000  1
  Li  Li20  1  0.25000000  0.25992208  0.25000000  1
  Li  Li21  1  0.75000000  0.25992208  0.25000000  1
  Li  Li22  1  0.50000000  0.75992208  0.75000000  1
  Li  Li23  1  1.00000000  0.75992208  0.75000000  1
  Li  Li24  1  0.25000000  0.25992208  -0.25000000  1
  Li  Li25  1  0.75000000  0.25992208  -0.25000000  1
  Li  Li26  1  0.50000000  0.75992208  0.25000000  1
  Li  Li27  1  1.00000000  0.75992208  0.25000000  1
  Li  Li28  1  0.00000000  0.24007792  0.75000000  1
  Li  Li29  1  0.50000000  0.24007792  0.75000000  1
  Li  Li30  1  0.25000000  0.74007792  1.25000000  1
  Li  Li31  1  0.75000000  0.74007792  1.25000000  1
  Li  Li32  1  0.00000000  -0.00000000  0.25000000  1
  Li  Li33  1  0.50000000  -0.00000000  0.25000000  1
  Li  Li34  1  0.25000000  0.50000000  0.75000000  1
  Li  Li35  1  0.75000000  0.50000000  0.75000000  1
  Li  Li36  1  -0.00000000  0.00000000  0.75000000  1
  Li  Li37  1  0.50000000  0.00000000  0.75000000  1
  Li  Li38  1  0.25000000  0.50000000  1.25000000  1
  Li  Li39  1  0.75000000  0.50000000  1.25000000  1
  Ga  Ga40  1  0.25000000  -0.00000000  0.25000000  1
  Ga  Ga41  1  0.75000000  -0.00000000  0.25000000  1
  Ga  Ga42  1  0.50000000  0.50000000  0.75000000  1
  Ga  Ga43  1  1.00000000  0.50000000  0.75000000  1
  Ga  Ga44  1  -0.00000000  0.50000000  0.25000000  1
  Ga  Ga45  1  0.50000000  0.50000000  0.25000000  1
  Ga  Ga46  1  0.25000000  1.00000000  0.75000000  1
  Ga  Ga47  1  0.75000000  1.00000000  0.75000000  1
  O  O48  1  0.13251811  0.11914152  0.33110547  1
  O  O49  1  0.63251811  0.11914152  0.33110547  1
  O  O50  1  0.38251811  0.61914152  0.83110547  1
  O  O51  1  0.88251811  0.61914152  0.83110547  1
  O  O52  1  0.11748189  0.38085848  0.16889453  1
  O  O53  1  0.61748189  0.38085848  0.16889453  1
  O  O54  1  0.36748189  0.88085848  0.66889453  1
  O  O55  1  0.86748189  0.88085848  0.66889453  1
  O  O56  1  0.11748189  0.38085848  -0.16889453  1
  O  O57  1  0.61748189  0.38085848  -0.16889453  1
  O  O58  1  0.36748189  0.88085848  0.33110547  1
  O  O59  1  0.86748189  0.88085848  0.33110547  1
  O  O60  1  0.36748189  0.11914152  0.16889453  1
  O  O61  1  0.86748189  0.11914152  0.16889453  1
  O  O62  1  0.61748189  0.61914152  0.66889453  1
  O  O63  1  1.11748189  0.61914152  0.66889453  1
  O  O64  1  0.13251811  0.11914152  0.66889453  1
  O  O65  1  0.63251811  0.11914152  0.66889453  1
  O  O66  1  0.38251811  0.61914152  1.16889453  1
  O  O67  1  0.88251811  0.61914152  1.16889453  1
  O  O68  1  -0.11748189  0.38085848  0.33110547  1
  O  O69  1  0.38251811  0.38085848  0.33110547  1
  O  O70  1  0.13251811  0.88085848  0.83110547  1
  O  O71  1  0.63251811  0.88085848  0.83110547  1
  O  O72  1  0.13251811  -0.11914152  0.16889453  1
  O  O73  1  0.63251811  -0.11914152  0.16889453  1
  O  O74  1  0.38251811  0.38085848  0.66889453  1
  O  O75  1  0.88251811  0.38085848  0.66889453  1
  O  O76  1  0.11748189  0.61914152  0.33110547  1
  O  O77  1  0.61748189  0.61914152  0.33110547  1
  O  O78  1  0.36748189  1.11914152  0.83110547  1
  O  O79  1  0.86748189  1.11914152  0.83110547  1
