# generated using pymatgen
data_CsCuO
_symmetry_space_group_name_H-M   'P 1'
_cell_length_a   17.65046275
_cell_length_b   20.81341211
_cell_length_c   19.76054708
_cell_angle_alpha   90.00000000
_cell_angle_beta   90.00000000
_cell_angle_gamma   90.00000000
_symmetry_Int_Tables_number   1
_chemical_formula_structural   CsCuO
_chemical_formula_sum   'Cs96 Cu96 O96'
_cell_volume   7259.36015638
_cell_formula_units_Z   96
loop_
 _symmetry_equiv_pos_site_id
 _symmetry_equiv_pos_as_xyz
  1  'x, y, z'
loop_
 _atom_site_type_symbol
 _atom_site_label
 _atom_site_symmetry_multiplicity
 _atom_site_fract_x
 _atom_site_fract_y
 _atom_site_fract_z
 _atom_site_occupancy
  Cs  Cs0  1  0.16666667  -0.15517194  0.18750000  1
  Cs  Cs1  1  0.16666667  -0.15517194  0.43750000  1
  Cs  Cs2  1  0.16666667  -0.15517194  0.68750000  1
  Cs  Cs3  1  0.16666667  -0.15517194  0.93750000  1
  Cs  Cs4  1  0.16666667  0.34482806  0.18750000  1
  Cs  Cs5  1  0.16666667  0.34482806  0.43750000  1
  Cs  Cs6  1  0.16666667  0.34482806  0.68750000  1
  Cs  Cs7  1  0.16666667  0.34482806  0.93750000  1
  Cs  Cs8  1  0.50000000  -0.15517194  0.18750000  1
  Cs  Cs9  1  0.50000000  -0.15517194  0.43750000  1
  Cs  Cs10  1  0.50000000  -0.15517194  0.68750000  1
  Cs  Cs11  1  0.50000000  -0.15517194  0.93750000  1
  Cs  Cs12  1  0.50000000  0.34482806  0.18750000  1
  Cs  Cs13  1  0.50000000  0.34482806  0.43750000  1
  Cs  Cs14  1  0.50000000  0.34482806  0.68750000  1
  Cs  Cs15  1  0.50000000  0.34482806  0.93750000  1
  Cs  Cs16  1  0.83333333  -0.15517194  0.18750000  1
  Cs  Cs17  1  0.83333333  -0.15517194  0.43750000  1
  Cs  Cs18  1  0.83333333  -0.15517194  0.68750000  1
  Cs  Cs19  1  0.83333333  -0.15517194  0.93750000  1
  Cs  Cs20  1  0.83333333  0.34482806  0.18750000  1
  Cs  Cs21  1  0.83333333  0.34482806  0.43750000  1
  Cs  Cs22  1  0.83333333  0.34482806  0.68750000  1
  Cs  Cs23  1  0.83333333  0.34482806  0.93750000  1
  Cs  Cs24  1  0.33333333  0.09482806  0.18750000  1
  Cs  Cs25  1  0.33333333  0.09482806  0.43750000  1
  Cs  Cs26  1  0.33333333  0.09482806  0.68750000  1
  Cs  Cs27  1  0.33333333  0.09482806  0.93750000  1
  Cs  Cs28  1  0.33333333  0.59482806  0.18750000  1
  Cs  Cs29  1  0.33333333  0.59482806  0.43750000  1
  Cs  Cs30  1  0.33333333  0.59482806  0.68750000  1
  Cs  Cs31  1  0.33333333  0.59482806  0.93750000  1
  Cs  Cs32  1  0.66666667  0.09482806  0.18750000  1
  Cs  Cs33  1  0.66666667  0.09482806  0.43750000  1
  Cs  Cs34  1  0.66666667  0.09482806  0.68750000  1
  Cs  Cs35  1  0.66666667  0.09482806  0.93750000  1
  Cs  Cs36  1  0.66666667  0.59482806  0.18750000  1
  Cs  Cs37  1  0.66666667  0.59482806  0.43750000  1
  Cs  Cs38  1  0.66666667  0.59482806  0.68750000  1
  Cs  Cs39  1  0.66666667  0.59482806  0.93750000  1
  Cs  Cs40  1  1.00000000  0.09482806  0.18750000  1
  Cs  Cs41  1  1.00000000  0.09482806  0.43750000  1
  Cs  Cs42  1  1.00000000  0.09482806  0.68750000  1
  Cs  Cs43  1  1.00000000  0.09482806  0.93750000  1
  Cs  Cs44  1  1.00000000  0.59482806  0.18750000  1
  Cs  Cs45  1  1.00000000  0.59482806  0.43750000  1
  Cs  Cs46  1  1.00000000  0.59482806  0.68750000  1
  Cs  Cs47  1  1.00000000  0.59482806  0.93750000  1
  Cs  Cs48  1  0.16666667  0.15517194  0.06250000  1
  Cs  Cs49  1  0.16666667  0.15517194  0.31250000  1
  Cs  Cs50  1  0.16666667  0.15517194  0.56250000  1
  Cs  Cs51  1  0.16666667  0.15517194  0.81250000  1
  Cs  Cs52  1  0.16666667  0.65517194  0.06250000  1
  Cs  Cs53  1  0.16666667  0.65517194  0.31250000  1
  Cs  Cs54  1  0.16666667  0.65517194  0.56250000  1
  Cs  Cs55  1  0.16666667  0.65517194  0.81250000  1
  Cs  Cs56  1  0.50000000  0.15517194  0.06250000  1
  Cs  Cs57  1  0.50000000  0.15517194  0.31250000  1
  Cs  Cs58  1  0.50000000  0.15517194  0.56250000  1
  Cs  Cs59  1  0.50000000  0.15517194  0.81250000  1
  Cs  Cs60  1  0.50000000  0.65517194  0.06250000  1
  Cs  Cs61  1  0.50000000  0.65517194  0.31250000  1
  Cs  Cs62  1  0.50000000  0.65517194  0.56250000  1
  Cs  Cs63  1  0.50000000  0.65517194  0.81250000  1
  Cs  Cs64  1  0.83333333  0.15517194  0.06250000  1
  Cs  Cs65  1  0.83333333  0.15517194  0.31250000  1
  Cs  Cs66  1  0.83333333  0.15517194  0.56250000  1
  Cs  Cs67  1  0.83333333  0.15517194  0.81250000  1
  Cs  Cs68  1  0.83333333  0.65517194  0.06250000  1
  Cs  Cs69  1  0.83333333  0.65517194  0.31250000  1
  Cs  Cs70  1  0.83333333  0.65517194  0.56250000  1
  Cs  Cs71  1  0.83333333  0.65517194  0.81250000  1
  Cs  Cs72  1  0.33333333  0.40517194  0.06250000  1
  Cs  Cs73  1  0.33333333  0.40517194  0.31250000  1
  Cs  Cs74  1  0.33333333  0.40517194  0.56250000  1
  Cs  Cs75  1  0.33333333  0.40517194  0.81250000  1
  Cs  Cs76  1  0.33333333  0.90517194  0.06250000  1
  Cs  Cs77  1  0.33333333  0.90517194  0.31250000  1
  Cs  Cs78  1  0.33333333  0.90517194  0.56250000  1
  Cs  Cs79  1  0.33333333  0.90517194  0.81250000  1
  Cs  Cs80  1  0.66666667  0.40517194  0.06250000  1
  Cs  Cs81  1  0.66666667  0.40517194  0.31250000  1
  Cs  Cs82  1  0.66666667  0.40517194  0.56250000  1
  Cs  Cs83  1  0.66666667  0.40517194  0.81250000  1
  Cs  Cs84  1  0.66666667  0.90517194  0.06250000  1
  Cs  Cs85  1  0.66666667  0.90517194  0.31250000  1
  Cs  Cs86  1  0.66666667  0.90517194  0.56250000  1
  Cs  Cs87  1  0.66666667  0.90517194  0.81250000  1
  Cs  Cs88  1  1.00000000  0.40517194  0.06250000  1
  Cs  Cs89  1  1.00000000  0.40517194  0.31250000  1
  Cs  Cs90  1  1.00000000  0.40517194  0.56250000  1
  Cs  Cs91  1  1.00000000  0.40517194  0.81250000  1
  Cs  Cs92  1  1.00000000  0.90517194  0.06250000  1
  Cs  Cs93  1  1.00000000  0.90517194  0.31250000  1
  Cs  Cs94  1  1.00000000  0.90517194  0.56250000  1
  Cs  Cs95  1  1.00000000  0.90517194  0.81250000  1
  Cu  Cu96  1  0.16666667  0.00000000  0.00000000  1
  Cu  Cu97  1  0.16666667  0.00000000  0.25000000  1
  Cu  Cu98  1  0.16666667  0.00000000  0.50000000  1
  Cu  Cu99  1  0.16666667  0.00000000  0.75000000  1
  Cu  Cu100  1  0.16666667  0.50000000  0.00000000  1
  Cu  Cu101  1  0.16666667  0.50000000  0.25000000  1
  Cu  Cu102  1  0.16666667  0.50000000  0.50000000  1
  Cu  Cu103  1  0.16666667  0.50000000  0.75000000  1
  Cu  Cu104  1  0.50000000  0.00000000  0.00000000  1
  Cu  Cu105  1  0.50000000  0.00000000  0.25000000  1
  Cu  Cu106  1  0.50000000  0.00000000  0.50000000  1
  Cu  Cu107  1  0.50000000  0.00000000  0.75000000  1
  Cu  Cu108  1  0.50000000  0.50000000  0.00000000  1
  Cu  Cu109  1  0.50000000  0.50000000  0.25000000  1
  Cu  Cu110  1  0.50000000  0.50000000  0.50000000  1
  Cu  Cu111  1  0.50000000  0.50000000  0.75000000  1
  Cu  Cu112  1  0.83333333  0.00000000  0.00000000  1
  Cu  Cu113  1  0.83333333  0.00000000  0.25000000  1
  Cu  Cu114  1  0.83333333  0.00000000  0.50000000  1
  Cu  Cu115  1  0.83333333  0.00000000  0.75000000  1
  Cu  Cu116  1  0.83333333  0.50000000  0.00000000  1
  Cu  Cu117  1  0.83333333  0.50000000  0.25000000  1
  Cu  Cu118  1  0.83333333  0.50000000  0.50000000  1
  Cu  Cu119  1  0.83333333  0.50000000  0.75000000  1
  Cu  Cu120  1  0.33333333  0.25000000  0.00000000  1
  Cu  Cu121  1  0.33333333  0.25000000  0.25000000  1
  Cu  Cu122  1  0.33333333  0.25000000  0.50000000  1
  Cu  Cu123  1  0.33333333  0.25000000  0.75000000  1
  Cu  Cu124  1  0.33333333  0.75000000  0.00000000  1
  Cu  Cu125  1  0.33333333  0.75000000  0.25000000  1
  Cu  Cu126  1  0.33333333  0.75000000  0.50000000  1
  Cu  Cu127  1  0.33333333  0.75000000  0.75000000  1
  Cu  Cu128  1  0.66666667  0.25000000  0.00000000  1
  Cu  Cu129  1  0.66666667  0.25000000  0.25000000  1
  Cu  Cu130  1  0.66666667  0.25000000  0.50000000  1
  Cu  Cu131  1  0.66666667  0.25000000  0.75000000  1
  Cu  Cu132  1  0.66666667  0.75000000  0.00000000  1
  Cu  Cu133  1  0.66666667  0.75000000  0.25000000  1
  Cu  Cu134  1  0.66666667  0.75000000  0.50000000  1
  Cu  Cu135  1  0.66666667  0.75000000  0.75000000  1
  Cu  Cu136  1  1.00000000  0.25000000  0.00000000  1
  Cu  Cu137  1  1.00000000  0.25000000  0.25000000  1
  Cu  Cu138  1  1.00000000  0.25000000  0.50000000  1
  Cu  Cu139  1  1.00000000  0.25000000  0.75000000  1
  Cu  Cu140  1  1.00000000  0.75000000  0.00000000  1
  Cu  Cu141  1  1.00000000  0.75000000  0.25000000  1
  Cu  Cu142  1  1.00000000  0.75000000  0.50000000  1
  Cu  Cu143  1  1.00000000  0.75000000  0.75000000  1
  Cu  Cu144  1  0.16666667  0.00000000  0.12500000  1
  Cu  Cu145  1  0.16666667  0.00000000  0.37500000  1
  Cu  Cu146  1  0.16666667  0.00000000  0.62500000  1
  Cu  Cu147  1  0.16666667  0.00000000  0.87500000  1
  Cu  Cu148  1  0.16666667  0.50000000  0.12500000  1
  Cu  Cu149  1  0.16666667  0.50000000  0.37500000  1
  Cu  Cu150  1  0.16666667  0.50000000  0.62500000  1
  Cu  Cu151  1  0.16666667  0.50000000  0.87500000  1
  Cu  Cu152  1  0.50000000  0.00000000  0.12500000  1
  Cu  Cu153  1  0.50000000  0.00000000  0.37500000  1
  Cu  Cu154  1  0.50000000  0.00000000  0.62500000  1
  Cu  Cu155  1  0.50000000  0.00000000  0.87500000  1
  Cu  Cu156  1  0.50000000  0.50000000  0.12500000  1
  Cu  Cu157  1  0.50000000  0.50000000  0.37500000  1
  Cu  Cu158  1  0.50000000  0.50000000  0.62500000  1
  Cu  Cu159  1  0.50000000  0.50000000  0.87500000  1
  Cu  Cu160  1  0.83333333  0.00000000  0.12500000  1
  Cu  Cu161  1  0.83333333  0.00000000  0.37500000  1
  Cu  Cu162  1  0.83333333  0.00000000  0.62500000  1
  Cu  Cu163  1  0.83333333  0.00000000  0.87500000  1
  Cu  Cu164  1  0.83333333  0.50000000  0.12500000  1
  Cu  Cu165  1  0.83333333  0.50000000  0.37500000  1
  Cu  Cu166  1  0.83333333  0.50000000  0.62500000  1
  Cu  Cu167  1  0.83333333  0.50000000  0.87500000  1
  Cu  Cu168  1  0.33333333  0.25000000  0.12500000  1
  Cu  Cu169  1  0.33333333  0.25000000  0.37500000  1
  Cu  Cu170  1  0.33333333  0.25000000  0.62500000  1
  Cu  Cu171  1  0.33333333  0.25000000  0.87500000  1
  Cu  Cu172  1  0.33333333  0.75000000  0.12500000  1
  Cu  Cu173  1  0.33333333  0.75000000  0.37500000  1
  Cu  Cu174  1  0.33333333  0.75000000  0.62500000  1
  Cu  Cu175  1  0.33333333  0.75000000  0.87500000  1
  Cu  Cu176  1  0.66666667  0.25000000  0.12500000  1
  Cu  Cu177  1  0.66666667  0.25000000  0.37500000  1
  Cu  Cu178  1  0.66666667  0.25000000  0.62500000  1
  Cu  Cu179  1  0.66666667  0.25000000  0.87500000  1
  Cu  Cu180  1  0.66666667  0.75000000  0.12500000  1
  Cu  Cu181  1  0.66666667  0.75000000  0.37500000  1
  Cu  Cu182  1  0.66666667  0.75000000  0.62500000  1
  Cu  Cu183  1  0.66666667  0.75000000  0.87500000  1
  Cu  Cu184  1  1.00000000  0.25000000  0.12500000  1
  Cu  Cu185  1  1.00000000  0.25000000  0.37500000  1
  Cu  Cu186  1  1.00000000  0.25000000  0.62500000  1
  Cu  Cu187  1  1.00000000  0.25000000  0.87500000  1
  Cu  Cu188  1  1.00000000  0.75000000  0.12500000  1
  Cu  Cu189  1  1.00000000  0.75000000  0.37500000  1
  Cu  Cu190  1  1.00000000  0.75000000  0.62500000  1
  Cu  Cu191  1  1.00000000  0.75000000  0.87500000  1
  O  O192  1  0.16666667  0.06329219  0.18750000  1
  O  O193  1  0.16666667  0.06329219  0.43750000  1
  O  O194  1  0.16666667  0.06329219  0.68750000  1
  O  O195  1  0.16666667  0.06329219  0.93750000  1
  O  O196  1  0.16666667  0.56329219  0.18750000  1
  O  O197  1  0.16666667  0.56329219  0.43750000  1
  O  O198  1  0.16666667  0.56329219  0.68750000  1
  O  O199  1  0.16666667  0.56329219  0.93750000  1
  O  O200  1  0.50000000  0.06329219  0.18750000  1
  O  O201  1  0.50000000  0.06329219  0.43750000  1
  O  O202  1  0.50000000  0.06329219  0.68750000  1
  O  O203  1  0.50000000  0.06329219  0.93750000  1
  O  O204  1  0.50000000  0.56329219  0.18750000  1
  O  O205  1  0.50000000  0.56329219  0.43750000  1
  O  O206  1  0.50000000  0.56329219  0.68750000  1
  O  O207  1  0.50000000  0.56329219  0.93750000  1
  O  O208  1  0.83333333  0.06329219  0.18750000  1
  O  O209  1  0.83333333  0.06329219  0.43750000  1
  O  O210  1  0.83333333  0.06329219  0.68750000  1
  O  O211  1  0.83333333  0.06329219  0.93750000  1
  O  O212  1  0.83333333  0.56329219  0.18750000  1
  O  O213  1  0.83333333  0.56329219  0.43750000  1
  O  O214  1  0.83333333  0.56329219  0.68750000  1
  O  O215  1  0.83333333  0.56329219  0.93750000  1
  O  O216  1  0.33333333  0.31329219  0.18750000  1
  O  O217  1  0.33333333  0.31329219  0.43750000  1
  O  O218  1  0.33333333  0.31329219  0.68750000  1
  O  O219  1  0.33333333  0.31329219  0.93750000  1
  O  O220  1  0.33333333  0.81329219  0.18750000  1
  O  O221  1  0.33333333  0.81329219  0.43750000  1
  O  O222  1  0.33333333  0.81329219  0.68750000  1
  O  O223  1  0.33333333  0.81329219  0.93750000  1
  O  O224  1  0.66666667  0.31329219  0.18750000  1
  O  O225  1  0.66666667  0.31329219  0.43750000  1
  O  O226  1  0.66666667  0.31329219  0.68750000  1
  O  O227  1  0.66666667  0.31329219  0.93750000  1
  O  O228  1  0.66666667  0.81329219  0.18750000  1
  O  O229  1  0.66666667  0.81329219  0.43750000  1
  O  O230  1  0.66666667  0.81329219  0.68750000  1
  O  O231  1  0.66666667  0.81329219  0.93750000  1
  O  O232  1  1.00000000  0.31329219  0.18750000  1
  O  O233  1  1.00000000  0.31329219  0.43750000  1
  O  O234  1  1.00000000  0.31329219  0.68750000  1
  O  O235  1  1.00000000  0.31329219  0.93750000  1
  O  O236  1  1.00000000  0.81329219  0.18750000  1
  O  O237  1  1.00000000  0.81329219  0.43750000  1
  O  O238  1  1.00000000  0.81329219  0.68750000  1
  O  O239  1  1.00000000  0.81329219  0.93750000  1
  O  O240  1  0.16666667  -0.06329219  0.06250000  1
  O  O241  1  0.16666667  -0.06329219  0.31250000  1
  O  O242  1  0.16666667  -0.06329219  0.56250000  1
  O  O243  1  0.16666667  -0.06329219  0.81250000  1
  O  O244  1  0.16666667  0.43670781  0.06250000  1
  O  O245  1  0.16666667  0.43670781  0.31250000  1
  O  O246  1  0.16666667  0.43670781  0.56250000  1
  O  O247  1  0.16666667  0.43670781  0.81250000  1
  O  O248  1  0.50000000  -0.06329219  0.06250000  1
  O  O249  1  0.50000000  -0.06329219  0.31250000  1
  O  O250  1  0.50000000  -0.06329219  0.56250000  1
  O  O251  1  0.50000000  -0.06329219  0.81250000  1
  O  O252  1  0.50000000  0.43670781  0.06250000  1
  O  O253  1  0.50000000  0.43670781  0.31250000  1
  O  O254  1  0.50000000  0.43670781  0.56250000  1
  O  O255  1  0.50000000  0.43670781  0.81250000  1
  O  O256  1  0.83333333  -0.06329219  0.06250000  1
  O  O257  1  0.83333333  -0.06329219  0.31250000  1
  O  O258  1  0.83333333  -0.06329219  0.56250000  1
  O  O259  1  0.83333333  -0.06329219  0.81250000  1
  O  O260  1  0.83333333  0.43670781  0.06250000  1
  O  O261  1  0.83333333  0.43670781  0.31250000  1
  O  O262  1  0.83333333  0.43670781  0.56250000  1
  O  O263  1  0.83333333  0.43670781  0.81250000  1
  O  O264  1  0.33333333  0.18670781  0.06250000  1
  O  O265  1  0.33333333  0.18670781  0.31250000  1
  O  O266  1  0.33333333  0.18670781  0.56250000  1
  O  O267  1  0.33333333  0.18670781  0.81250000  1
  O  O268  1  0.33333333  0.68670781  0.06250000  1
  O  O269  1  0.33333333  0.68670781  0.31250000  1
  O  O270  1  0.33333333  0.68670781  0.56250000  1
  O  O271  1  0.33333333  0.68670781  0.81250000  1
  O  O272  1  0.66666667  0.18670781  0.06250000  1
  O  O273  1  0.66666667  0.18670781  0.31250000  1
  O  O274  1  0.66666667  0.18670781  0.56250000  1
  O  O275  1  0.66666667  0.18670781  0.81250000  1
  O  O276  1  0.66666667  0.68670781  0.06250000  1
  O  O277  1  0.66666667  0.68670781  0.31250000  1
  O  O278  1  0.66666667  0.68670781  0.56250000  1
  O  O279  1  0.66666667  0.68670781  0.81250000  1
  O  O280  1  1.00000000  0.18670781  0.06250000  1
  O  O281  1  1.00000000  0.18670781  0.31250000  1
  O  O282  1  1.00000000  0.18670781  0.56250000  1
  O  O283  1  1.00000000  0.18670781  0.81250000  1
  O  O284  1  1.00000000  0.68670781  0.06250000  1
  O  O285  1  1.00000000  0.68670781  0.31250000  1
  O  O286  1  1.00000000  0.68670781  0.56250000  1
  O  O287  1  1.00000000  0.68670781  0.81250000  1
