# generated using pymatgen
data_Li2PdO3
_symmetry_space_group_name_H-M   'P 1'
_cell_length_a   10.22252083
_cell_length_b   8.83895166
_cell_length_c   10.12678557
_cell_angle_alpha   90.00000000
_cell_angle_beta   109.69392539
_cell_angle_gamma   90.00000000
_symmetry_Int_Tables_number   1
_chemical_formula_structural   Li2PdO3
_chemical_formula_sum   'Li32 Pd16 O48'
_cell_volume   861.49665939
_cell_formula_units_Z   16
loop_
 _symmetry_equiv_pos_site_id
 _symmetry_equiv_pos_as_xyz
  1  'x, y, z'
loop_
 _atom_site_type_symbol
 _atom_site_label
 _atom_site_symmetry_multiplicity
 _atom_site_fract_x
 _atom_site_fract_y
 _atom_site_fract_z
 _atom_site_occupancy
  Li  Li0  1  0.25000000  0.00000000  0.25000000  1
  Li  Li1  1  0.25000000  0.00000000  0.75000000  1
  Li  Li2  1  0.75000000  0.00000000  0.25000000  1
  Li  Li3  1  0.75000000  0.00000000  0.75000000  1
  Li  Li4  1  0.50000000  0.50000000  0.25000000  1
  Li  Li5  1  0.50000000  0.50000000  0.75000000  1
  Li  Li6  1  1.00000000  0.50000000  0.25000000  1
  Li  Li7  1  1.00000000  0.50000000  0.75000000  1
  Li  Li8  1  0.25000000  0.33611867  0.25000000  1
  Li  Li9  1  0.25000000  0.33611867  0.75000000  1
  Li  Li10  1  0.75000000  0.33611867  0.25000000  1
  Li  Li11  1  0.75000000  0.33611867  0.75000000  1
  Li  Li12  1  0.50000000  0.83611867  0.25000000  1
  Li  Li13  1  0.50000000  0.83611867  0.75000000  1
  Li  Li14  1  1.00000000  0.83611867  0.25000000  1
  Li  Li15  1  1.00000000  0.83611867  0.75000000  1
  Li  Li16  1  0.25000000  -0.33611867  0.25000000  1
  Li  Li17  1  0.25000000  -0.33611867  0.75000000  1
  Li  Li18  1  0.75000000  -0.33611867  0.25000000  1
  Li  Li19  1  0.75000000  -0.33611867  0.75000000  1
  Li  Li20  1  0.50000000  0.16388133  0.25000000  1
  Li  Li21  1  0.50000000  0.16388133  0.75000000  1
  Li  Li22  1  1.00000000  0.16388133  0.25000000  1
  Li  Li23  1  1.00000000  0.16388133  0.75000000  1
  Li  Li24  1  0.00000000  0.00000000  0.00000000  1
  Li  Li25  1  -0.00000000  0.00000000  0.50000000  1
  Li  Li26  1  0.50000000  0.00000000  0.00000000  1
  Li  Li27  1  0.50000000  0.00000000  0.50000000  1
  Li  Li28  1  0.25000000  0.50000000  0.00000000  1
  Li  Li29  1  0.25000000  0.50000000  0.50000000  1
  Li  Li30  1  0.75000000  0.50000000  0.00000000  1
  Li  Li31  1  0.75000000  0.50000000  0.50000000  1
  Pd  Pd32  1  0.25000000  0.16671169  0.00000000  1
  Pd  Pd33  1  0.25000000  0.16671169  0.50000000  1
  Pd  Pd34  1  0.75000000  0.16671169  0.00000000  1
  Pd  Pd35  1  0.75000000  0.16671169  0.50000000  1
  Pd  Pd36  1  0.50000000  0.66671169  0.00000000  1
  Pd  Pd37  1  0.50000000  0.66671169  0.50000000  1
  Pd  Pd38  1  1.00000000  0.66671169  0.00000000  1
  Pd  Pd39  1  1.00000000  0.66671169  0.50000000  1
  Pd  Pd40  1  0.25000000  -0.16671169  0.00000000  1
  Pd  Pd41  1  0.25000000  -0.16671169  0.50000000  1
  Pd  Pd42  1  0.75000000  -0.16671169  0.00000000  1
  Pd  Pd43  1  0.75000000  -0.16671169  0.50000000  1
  Pd  Pd44  1  0.50000000  0.33328831  0.00000000  1
  Pd  Pd45  1  0.50000000  0.33328831  0.50000000  1
  Pd  Pd46  1  1.00000000  0.33328831  0.00000000  1
  Pd  Pd47  1  1.00000000  0.33328831  0.50000000  1
  O  O48  1  0.13463009  0.00000000  0.38204275  1
  O  O49  1  0.13463009  0.00000000  0.88204275  1
  O  O50  1  0.63463009  0.00000000  0.38204275  1
  O  O51  1  0.63463009  0.00000000  0.88204275  1
  O  O52  1  0.38463009  0.50000000  0.38204275  1
  O  O53  1  0.38463009  0.50000000  0.88204275  1
  O  O54  1  0.88463009  0.50000000  0.38204275  1
  O  O55  1  0.88463009  0.50000000  0.88204275  1
  O  O56  1  0.12579891  0.17405891  0.11661477  1
  O  O57  1  0.12579891  0.17405891  0.61661477  1
  O  O58  1  0.62579891  0.17405891  0.11661477  1
  O  O59  1  0.62579891  0.17405891  0.61661477  1
  O  O60  1  0.37579891  0.67405891  0.11661477  1
  O  O61  1  0.37579891  0.67405891  0.61661477  1
  O  O62  1  0.87579891  0.67405891  0.11661477  1
  O  O63  1  0.87579891  0.67405891  0.61661477  1
  O  O64  1  0.12579891  -0.17405891  0.11661477  1
  O  O65  1  0.12579891  -0.17405891  0.61661477  1
  O  O66  1  0.62579891  -0.17405891  0.11661477  1
  O  O67  1  0.62579891  -0.17405891  0.61661477  1
  O  O68  1  0.37579891  0.32594109  0.11661477  1
  O  O69  1  0.37579891  0.32594109  0.61661477  1
  O  O70  1  0.87579891  0.32594109  0.11661477  1
  O  O71  1  0.87579891  0.32594109  0.61661477  1
  O  O72  1  0.37420109  -0.17405891  0.38338523  1
  O  O73  1  0.37420109  -0.17405891  0.88338523  1
  O  O74  1  0.87420109  -0.17405891  0.38338523  1
  O  O75  1  0.87420109  -0.17405891  0.88338523  1
  O  O76  1  0.62420109  0.32594109  0.38338523  1
  O  O77  1  0.62420109  0.32594109  0.88338523  1
  O  O78  1  1.12420109  0.32594109  0.38338523  1
  O  O79  1  1.12420109  0.32594109  0.88338523  1
  O  O80  1  0.37420109  0.17405891  0.38338523  1
  O  O81  1  0.37420109  0.17405891  0.88338523  1
  O  O82  1  0.87420109  0.17405891  0.38338523  1
  O  O83  1  0.87420109  0.17405891  0.88338523  1
  O  O84  1  0.62420109  0.67405891  0.38338523  1
  O  O85  1  0.62420109  0.67405891  0.88338523  1
  O  O86  1  1.12420109  0.67405891  0.38338523  1
  O  O87  1  1.12420109  0.67405891  0.88338523  1
  O  O88  1  0.36536991  -0.00000000  0.11795725  1
  O  O89  1  0.36536991  -0.00000000  0.61795725  1
  O  O90  1  0.86536991  -0.00000000  0.11795725  1
  O  O91  1  0.86536991  -0.00000000  0.61795725  1
  O  O92  1  0.61536991  0.50000000  0.11795725  1
  O  O93  1  0.61536991  0.50000000  0.61795725  1
  O  O94  1  1.11536991  0.50000000  0.11795725  1
  O  O95  1  1.11536991  0.50000000  0.61795725  1
