# generated using pymatgen
data_BaZn2Si2O7
_symmetry_space_group_name_H-M   'P 1'
_cell_length_a   12.83952237
_cell_length_b   15.77357510
_cell_length_c   13.07480374
_cell_angle_alpha   90.00000000
_cell_angle_beta   90.00000000
_cell_angle_gamma   90.00000000
_symmetry_Int_Tables_number   1
_chemical_formula_structural   BaZn2Si2O7
_chemical_formula_sum   'Ba16 Zn32 Si32 O112'
_cell_volume   2647.97685469
_cell_formula_units_Z   16
loop_
 _symmetry_equiv_pos_site_id
 _symmetry_equiv_pos_as_xyz
  1  'x, y, z'
loop_
 _atom_site_type_symbol
 _atom_site_label
 _atom_site_symmetry_multiplicity
 _atom_site_fract_x
 _atom_site_fract_y
 _atom_site_fract_z
 _atom_site_occupancy
  Ba  Ba0  1  0.50000000  -0.13736807  0.12500000  1
  Ba  Ba1  1  0.50000000  -0.13736807  0.62500000  1
  Ba  Ba2  1  0.50000000  0.36263193  0.12500000  1
  Ba  Ba3  1  0.50000000  0.36263193  0.62500000  1
  Ba  Ba4  1  1.00000000  0.11263193  0.12500000  1
  Ba  Ba5  1  1.00000000  0.11263193  0.62500000  1
  Ba  Ba6  1  1.00000000  0.61263193  0.12500000  1
  Ba  Ba7  1  1.00000000  0.61263193  0.62500000  1
  Ba  Ba8  1  0.50000000  0.13736807  0.37500000  1
  Ba  Ba9  1  0.50000000  0.13736807  0.87500000  1
  Ba  Ba10  1  0.50000000  0.63736807  0.37500000  1
  Ba  Ba11  1  0.50000000  0.63736807  0.87500000  1
  Ba  Ba12  1  1.00000000  0.38736807  0.37500000  1
  Ba  Ba13  1  1.00000000  0.38736807  0.87500000  1
  Ba  Ba14  1  1.00000000  0.88736807  0.37500000  1
  Ba  Ba15  1  1.00000000  0.88736807  0.87500000  1
  Zn  Zn16  1  0.27561251  -0.00000000  0.25000000  1
  Zn  Zn17  1  0.27561251  -0.00000000  0.75000000  1
  Zn  Zn18  1  0.27561251  0.50000000  0.25000000  1
  Zn  Zn19  1  0.27561251  0.50000000  0.75000000  1
  Zn  Zn20  1  0.77561251  0.25000000  0.25000000  1
  Zn  Zn21  1  0.77561251  0.25000000  0.75000000  1
  Zn  Zn22  1  0.77561251  0.75000000  0.25000000  1
  Zn  Zn23  1  0.77561251  0.75000000  0.75000000  1
  Zn  Zn24  1  0.72438749  -0.00000000  0.25000000  1
  Zn  Zn25  1  0.72438749  -0.00000000  0.75000000  1
  Zn  Zn26  1  0.72438749  0.50000000  0.25000000  1
  Zn  Zn27  1  0.72438749  0.50000000  0.75000000  1
  Zn  Zn28  1  1.22438749  0.25000000  0.25000000  1
  Zn  Zn29  1  1.22438749  0.25000000  0.75000000  1
  Zn  Zn30  1  1.22438749  0.75000000  0.25000000  1
  Zn  Zn31  1  1.22438749  0.75000000  0.75000000  1
  Zn  Zn32  1  0.27561251  -0.00000000  0.00000000  1
  Zn  Zn33  1  0.27561251  -0.00000000  0.50000000  1
  Zn  Zn34  1  0.27561251  0.50000000  0.00000000  1
  Zn  Zn35  1  0.27561251  0.50000000  0.50000000  1
  Zn  Zn36  1  0.77561251  0.25000000  0.00000000  1
  Zn  Zn37  1  0.77561251  0.25000000  0.50000000  1
  Zn  Zn38  1  0.77561251  0.75000000  0.00000000  1
  Zn  Zn39  1  0.77561251  0.75000000  0.50000000  1
  Zn  Zn40  1  0.72438749  -0.00000000  0.00000000  1
  Zn  Zn41  1  0.72438749  -0.00000000  0.50000000  1
  Zn  Zn42  1  0.72438749  0.50000000  0.00000000  1
  Zn  Zn43  1  0.72438749  0.50000000  0.50000000  1
  Zn  Zn44  1  1.22438749  0.25000000  0.00000000  1
  Zn  Zn45  1  1.22438749  0.25000000  0.50000000  1
  Zn  Zn46  1  1.22438749  0.75000000  0.00000000  1
  Zn  Zn47  1  1.22438749  0.75000000  0.50000000  1
  Si  Si48  1  0.37924659  -0.14689417  0.37500000  1
  Si  Si49  1  0.37924659  -0.14689417  0.87500000  1
  Si  Si50  1  0.37924659  0.35310583  0.37500000  1
  Si  Si51  1  0.37924659  0.35310583  0.87500000  1
  Si  Si52  1  0.87924659  0.10310583  0.37500000  1
  Si  Si53  1  0.87924659  0.10310583  0.87500000  1
  Si  Si54  1  0.87924659  0.60310583  0.37500000  1
  Si  Si55  1  0.87924659  0.60310583  0.87500000  1
  Si  Si56  1  0.62075341  -0.14689417  0.37500000  1
  Si  Si57  1  0.62075341  -0.14689417  0.87500000  1
  Si  Si58  1  0.62075341  0.35310583  0.37500000  1
  Si  Si59  1  0.62075341  0.35310583  0.87500000  1
  Si  Si60  1  1.12075341  0.10310583  0.37500000  1
  Si  Si61  1  1.12075341  0.10310583  0.87500000  1
  Si  Si62  1  1.12075341  0.60310583  0.37500000  1
  Si  Si63  1  1.12075341  0.60310583  0.87500000  1
  Si  Si64  1  0.37924659  0.14689417  0.12500000  1
  Si  Si65  1  0.37924659  0.14689417  0.62500000  1
  Si  Si66  1  0.37924659  0.64689417  0.12500000  1
  Si  Si67  1  0.37924659  0.64689417  0.62500000  1
  Si  Si68  1  0.87924659  0.39689417  0.12500000  1
  Si  Si69  1  0.87924659  0.39689417  0.62500000  1
  Si  Si70  1  0.87924659  0.89689417  0.12500000  1
  Si  Si71  1  0.87924659  0.89689417  0.62500000  1
  Si  Si72  1  0.62075341  0.14689417  0.12500000  1
  Si  Si73  1  0.62075341  0.14689417  0.62500000  1
  Si  Si74  1  0.62075341  0.64689417  0.12500000  1
  Si  Si75  1  0.62075341  0.64689417  0.62500000  1
  Si  Si76  1  1.12075341  0.39689417  0.12500000  1
  Si  Si77  1  1.12075341  0.39689417  0.62500000  1
  Si  Si78  1  1.12075341  0.89689417  0.12500000  1
  Si  Si79  1  1.12075341  0.89689417  0.62500000  1
  O  O80  1  0.80520020  -0.01713122  0.12500000  1
  O  O81  1  0.80520020  -0.01713122  0.62500000  1
  O  O82  1  0.80520020  0.48286878  0.12500000  1
  O  O83  1  0.80520020  0.48286878  0.62500000  1
  O  O84  1  1.30520020  0.23286878  0.12500000  1
  O  O85  1  1.30520020  0.23286878  0.62500000  1
  O  O86  1  1.30520020  0.73286878  0.12500000  1
  O  O87  1  1.30520020  0.73286878  0.62500000  1
  O  O88  1  0.63357959  0.09367537  0.22975554  1
  O  O89  1  0.63357959  0.09367537  0.72975554  1
  O  O90  1  0.63357959  0.59367537  0.22975554  1
  O  O91  1  0.63357959  0.59367537  0.72975554  1
  O  O92  1  1.13357959  0.34367537  0.22975554  1
  O  O93  1  1.13357959  0.34367537  0.72975554  1
  O  O94  1  1.13357959  0.84367537  0.22975554  1
  O  O95  1  1.13357959  0.84367537  0.72975554  1
  O  O96  1  0.80520020  0.01713122  0.37500000  1
  O  O97  1  0.80520020  0.01713122  0.87500000  1
  O  O98  1  0.80520020  0.51713122  0.37500000  1
  O  O99  1  0.80520020  0.51713122  0.87500000  1
  O  O100  1  1.30520020  0.26713122  0.37500000  1
  O  O101  1  1.30520020  0.26713122  0.87500000  1
  O  O102  1  1.30520020  0.76713122  0.37500000  1
  O  O103  1  1.30520020  0.76713122  0.87500000  1
  O  O104  1  0.63357959  0.09367537  0.02024446  1
  O  O105  1  0.63357959  0.09367537  0.52024446  1
  O  O106  1  0.63357959  0.59367537  0.02024446  1
  O  O107  1  0.63357959  0.59367537  0.52024446  1
  O  O108  1  1.13357959  0.34367537  0.02024446  1
  O  O109  1  1.13357959  0.34367537  0.52024446  1
  O  O110  1  1.13357959  0.84367537  0.02024446  1
  O  O111  1  1.13357959  0.84367537  0.52024446  1
  O  O112  1  0.19479980  0.01713122  0.37500000  1
  O  O113  1  0.19479980  0.01713122  0.87500000  1
  O  O114  1  0.19479980  0.51713122  0.37500000  1
  O  O115  1  0.19479980  0.51713122  0.87500000  1
  O  O116  1  0.69479980  0.26713122  0.37500000  1
  O  O117  1  0.69479980  0.26713122  0.87500000  1
  O  O118  1  0.69479980  0.76713122  0.37500000  1
  O  O119  1  0.69479980  0.76713122  0.87500000  1
  O  O120  1  0.50000000  -0.18936845  0.37500000  1
  O  O121  1  0.50000000  -0.18936845  0.87500000  1
  O  O122  1  0.50000000  0.31063155  0.37500000  1
  O  O123  1  0.50000000  0.31063155  0.87500000  1
  O  O124  1  1.00000000  0.06063155  0.37500000  1
  O  O125  1  1.00000000  0.06063155  0.87500000  1
  O  O126  1  1.00000000  0.56063155  0.37500000  1
  O  O127  1  1.00000000  0.56063155  0.87500000  1
  O  O128  1  0.36642041  -0.09367537  0.27024446  1
  O  O129  1  0.36642041  -0.09367537  0.77024446  1
  O  O130  1  0.36642041  0.40632463  0.27024446  1
  O  O131  1  0.36642041  0.40632463  0.77024446  1
  O  O132  1  0.86642041  0.15632463  0.27024446  1
  O  O133  1  0.86642041  0.15632463  0.77024446  1
  O  O134  1  0.86642041  0.65632463  0.27024446  1
  O  O135  1  0.86642041  0.65632463  0.77024446  1
  O  O136  1  0.36642041  0.09367537  0.22975554  1
  O  O137  1  0.36642041  0.09367537  0.72975554  1
  O  O138  1  0.36642041  0.59367537  0.22975554  1
  O  O139  1  0.36642041  0.59367537  0.72975554  1
  O  O140  1  0.86642041  0.34367537  0.22975554  1
  O  O141  1  0.86642041  0.34367537  0.72975554  1
  O  O142  1  0.86642041  0.84367537  0.22975554  1
  O  O143  1  0.86642041  0.84367537  0.72975554  1
  O  O144  1  0.36642041  -0.09367537  0.47975554  1
  O  O145  1  0.36642041  -0.09367537  0.97975554  1
  O  O146  1  0.36642041  0.40632463  0.47975554  1
  O  O147  1  0.36642041  0.40632463  0.97975554  1
  O  O148  1  0.86642041  0.15632463  0.47975554  1
  O  O149  1  0.86642041  0.15632463  0.97975554  1
  O  O150  1  0.86642041  0.65632463  0.47975554  1
  O  O151  1  0.86642041  0.65632463  0.97975554  1
  O  O152  1  0.63357959  -0.09367537  0.47975554  1
  O  O153  1  0.63357959  -0.09367537  0.97975554  1
  O  O154  1  0.63357959  0.40632463  0.47975554  1
  O  O155  1  0.63357959  0.40632463  0.97975554  1
  O  O156  1  1.13357959  0.15632463  0.47975554  1
  O  O157  1  1.13357959  0.15632463  0.97975554  1
  O  O158  1  1.13357959  0.65632463  0.47975554  1
  O  O159  1  1.13357959  0.65632463  0.97975554  1
  O  O160  1  0.50000000  0.18936845  0.12500000  1
  O  O161  1  0.50000000  0.18936845  0.62500000  1
  O  O162  1  0.50000000  0.68936845  0.12500000  1
  O  O163  1  0.50000000  0.68936845  0.62500000  1
  O  O164  1  1.00000000  0.43936845  0.12500000  1
  O  O165  1  1.00000000  0.43936845  0.62500000  1
  O  O166  1  1.00000000  0.93936845  0.12500000  1
  O  O167  1  1.00000000  0.93936845  0.62500000  1
  O  O168  1  0.36642041  0.09367537  0.02024446  1
  O  O169  1  0.36642041  0.09367537  0.52024446  1
  O  O170  1  0.36642041  0.59367537  0.02024446  1
  O  O171  1  0.36642041  0.59367537  0.52024446  1
  O  O172  1  0.86642041  0.34367537  0.02024446  1
  O  O173  1  0.86642041  0.34367537  0.52024446  1
  O  O174  1  0.86642041  0.84367537  0.02024446  1
  O  O175  1  0.86642041  0.84367537  0.52024446  1
  O  O176  1  0.63357959  -0.09367537  0.27024446  1
  O  O177  1  0.63357959  -0.09367537  0.77024446  1
  O  O178  1  0.63357959  0.40632463  0.27024446  1
  O  O179  1  0.63357959  0.40632463  0.77024446  1
  O  O180  1  1.13357959  0.15632463  0.27024446  1
  O  O181  1  1.13357959  0.15632463  0.77024446  1
  O  O182  1  1.13357959  0.65632463  0.27024446  1
  O  O183  1  1.13357959  0.65632463  0.77024446  1
  O  O184  1  0.19479980  -0.01713122  0.12500000  1
  O  O185  1  0.19479980  -0.01713122  0.62500000  1
  O  O186  1  0.19479980  0.48286878  0.12500000  1
  O  O187  1  0.19479980  0.48286878  0.62500000  1
  O  O188  1  0.69479980  0.23286878  0.12500000  1
  O  O189  1  0.69479980  0.23286878  0.62500000  1
  O  O190  1  0.69479980  0.73286878  0.12500000  1
  O  O191  1  0.69479980  0.73286878  0.62500000  1
