# generated using pymatgen
data_BaCa(GaO2)4
_symmetry_space_group_name_H-M   'P 1'
_cell_length_a   16.41782734
_cell_length_b   18.33280261
_cell_length_c   15.48001373
_cell_angle_alpha   90.00000000
_cell_angle_beta   90.00000000
_cell_angle_gamma   90.00000000
_symmetry_Int_Tables_number   1
_chemical_formula_structural   BaCa(GaO2)4
_chemical_formula_sum   'Ba24 Ca24 Ga96 O192'
_cell_volume   4659.24864932
_cell_formula_units_Z   24
loop_
 _symmetry_equiv_pos_site_id
 _symmetry_equiv_pos_as_xyz
  1  'x, y, z'
loop_
 _atom_site_type_symbol
 _atom_site_label
 _atom_site_symmetry_multiplicity
 _atom_site_fract_x
 _atom_site_fract_y
 _atom_site_fract_z
 _atom_site_occupancy
  Ba  Ba0  1  0.00000000  -0.00000000  0.00420010  1
  Ba  Ba1  1  0.00000000  -0.00000000  0.33753344  1
  Ba  Ba2  1  0.00000000  -0.00000000  0.67086677  1
  Ba  Ba3  1  0.00000000  0.50000000  0.00420010  1
  Ba  Ba4  1  0.00000000  0.50000000  0.33753344  1
  Ba  Ba5  1  0.00000000  0.50000000  0.67086677  1
  Ba  Ba6  1  0.50000000  -0.00000000  0.00420010  1
  Ba  Ba7  1  0.50000000  -0.00000000  0.33753344  1
  Ba  Ba8  1  0.50000000  -0.00000000  0.67086677  1
  Ba  Ba9  1  0.50000000  0.50000000  0.00420010  1
  Ba  Ba10  1  0.50000000  0.50000000  0.33753344  1
  Ba  Ba11  1  0.50000000  0.50000000  0.67086677  1
  Ba  Ba12  1  0.25000000  0.25000000  0.17086677  1
  Ba  Ba13  1  0.25000000  0.25000000  0.50420010  1
  Ba  Ba14  1  0.25000000  0.25000000  0.83753344  1
  Ba  Ba15  1  0.25000000  0.75000000  0.17086677  1
  Ba  Ba16  1  0.25000000  0.75000000  0.50420010  1
  Ba  Ba17  1  0.25000000  0.75000000  0.83753344  1
  Ba  Ba18  1  0.75000000  0.25000000  0.17086677  1
  Ba  Ba19  1  0.75000000  0.25000000  0.50420010  1
  Ba  Ba20  1  0.75000000  0.25000000  0.83753344  1
  Ba  Ba21  1  0.75000000  0.75000000  0.17086677  1
  Ba  Ba22  1  0.75000000  0.75000000  0.50420010  1
  Ba  Ba23  1  0.75000000  0.75000000  0.83753344  1
  Ca  Ca24  1  0.00000000  0.25000000  0.14341677  1
  Ca  Ca25  1  0.00000000  0.25000000  0.47675011  1
  Ca  Ca26  1  0.00000000  0.25000000  0.81008344  1
  Ca  Ca27  1  0.00000000  0.75000000  0.14341677  1
  Ca  Ca28  1  0.00000000  0.75000000  0.47675011  1
  Ca  Ca29  1  0.00000000  0.75000000  0.81008344  1
  Ca  Ca30  1  0.50000000  0.25000000  0.14341677  1
  Ca  Ca31  1  0.50000000  0.25000000  0.47675011  1
  Ca  Ca32  1  0.50000000  0.25000000  0.81008344  1
  Ca  Ca33  1  0.50000000  0.75000000  0.14341677  1
  Ca  Ca34  1  0.50000000  0.75000000  0.47675011  1
  Ca  Ca35  1  0.50000000  0.75000000  0.81008344  1
  Ca  Ca36  1  0.25000000  0.50000000  0.31008344  1
  Ca  Ca37  1  0.25000000  0.50000000  0.64341677  1
  Ca  Ca38  1  0.25000000  0.50000000  0.97675011  1
  Ca  Ca39  1  0.25000000  1.00000000  0.31008344  1
  Ca  Ca40  1  0.25000000  1.00000000  0.64341677  1
  Ca  Ca41  1  0.25000000  1.00000000  0.97675011  1
  Ca  Ca42  1  0.75000000  0.50000000  0.31008344  1
  Ca  Ca43  1  0.75000000  0.50000000  0.64341677  1
  Ca  Ca44  1  0.75000000  0.50000000  0.97675011  1
  Ca  Ca45  1  0.75000000  1.00000000  0.31008344  1
  Ca  Ca46  1  0.75000000  1.00000000  0.64341677  1
  Ca  Ca47  1  0.75000000  1.00000000  0.97675011  1
  Ga  Ga48  1  0.10447893  0.33372906  -0.01345976  1
  Ga  Ga49  1  0.10447893  0.33372906  0.31987357  1
  Ga  Ga50  1  0.10447893  0.33372906  0.65320690  1
  Ga  Ga51  1  0.10447893  0.83372906  -0.01345976  1
  Ga  Ga52  1  0.10447893  0.83372906  0.31987357  1
  Ga  Ga53  1  0.10447893  0.83372906  0.65320690  1
  Ga  Ga54  1  0.60447893  0.33372906  -0.01345976  1
  Ga  Ga55  1  0.60447893  0.33372906  0.31987357  1
  Ga  Ga56  1  0.60447893  0.33372906  0.65320690  1
  Ga  Ga57  1  0.60447893  0.83372906  -0.01345976  1
  Ga  Ga58  1  0.60447893  0.83372906  0.31987357  1
  Ga  Ga59  1  0.60447893  0.83372906  0.65320690  1
  Ga  Ga60  1  0.35447893  0.58372906  0.15320690  1
  Ga  Ga61  1  0.35447893  0.58372906  0.48654024  1
  Ga  Ga62  1  0.35447893  0.58372906  0.81987357  1
  Ga  Ga63  1  0.35447893  1.08372906  0.15320690  1
  Ga  Ga64  1  0.35447893  1.08372906  0.48654024  1
  Ga  Ga65  1  0.35447893  1.08372906  0.81987357  1
  Ga  Ga66  1  0.85447893  0.58372906  0.15320690  1
  Ga  Ga67  1  0.85447893  0.58372906  0.48654024  1
  Ga  Ga68  1  0.85447893  0.58372906  0.81987357  1
  Ga  Ga69  1  0.85447893  1.08372906  0.15320690  1
  Ga  Ga70  1  0.85447893  1.08372906  0.48654024  1
  Ga  Ga71  1  0.85447893  1.08372906  0.81987357  1
  Ga  Ga72  1  0.10447893  0.16627094  -0.01345976  1
  Ga  Ga73  1  0.10447893  0.16627094  0.31987357  1
  Ga  Ga74  1  0.10447893  0.16627094  0.65320690  1
  Ga  Ga75  1  0.10447893  0.66627094  -0.01345976  1
  Ga  Ga76  1  0.10447893  0.66627094  0.31987357  1
  Ga  Ga77  1  0.10447893  0.66627094  0.65320690  1
  Ga  Ga78  1  0.60447893  0.16627094  -0.01345976  1
  Ga  Ga79  1  0.60447893  0.16627094  0.31987357  1
  Ga  Ga80  1  0.60447893  0.16627094  0.65320690  1
  Ga  Ga81  1  0.60447893  0.66627094  -0.01345976  1
  Ga  Ga82  1  0.60447893  0.66627094  0.31987357  1
  Ga  Ga83  1  0.60447893  0.66627094  0.65320690  1
  Ga  Ga84  1  0.35447893  0.41627094  0.15320690  1
  Ga  Ga85  1  0.35447893  0.41627094  0.48654024  1
  Ga  Ga86  1  0.35447893  0.41627094  0.81987357  1
  Ga  Ga87  1  0.35447893  0.91627094  0.15320690  1
  Ga  Ga88  1  0.35447893  0.91627094  0.48654024  1
  Ga  Ga89  1  0.35447893  0.91627094  0.81987357  1
  Ga  Ga90  1  0.85447893  0.41627094  0.15320690  1
  Ga  Ga91  1  0.85447893  0.41627094  0.48654024  1
  Ga  Ga92  1  0.85447893  0.41627094  0.81987357  1
  Ga  Ga93  1  0.85447893  0.91627094  0.15320690  1
  Ga  Ga94  1  0.85447893  0.91627094  0.48654024  1
  Ga  Ga95  1  0.85447893  0.91627094  0.81987357  1
  Ga  Ga96  1  0.14552107  -0.08372906  0.15320690  1
  Ga  Ga97  1  0.14552107  -0.08372906  0.48654024  1
  Ga  Ga98  1  0.14552107  -0.08372906  0.81987357  1
  Ga  Ga99  1  0.14552107  0.41627094  0.15320690  1
  Ga  Ga100  1  0.14552107  0.41627094  0.48654024  1
  Ga  Ga101  1  0.14552107  0.41627094  0.81987357  1
  Ga  Ga102  1  0.64552107  -0.08372906  0.15320690  1
  Ga  Ga103  1  0.64552107  -0.08372906  0.48654024  1
  Ga  Ga104  1  0.64552107  -0.08372906  0.81987357  1
  Ga  Ga105  1  0.64552107  0.41627094  0.15320690  1
  Ga  Ga106  1  0.64552107  0.41627094  0.48654024  1
  Ga  Ga107  1  0.64552107  0.41627094  0.81987357  1
  Ga  Ga108  1  0.39552107  0.16627094  0.31987357  1
  Ga  Ga109  1  0.39552107  0.16627094  0.65320690  1
  Ga  Ga110  1  0.39552107  0.16627094  0.98654024  1
  Ga  Ga111  1  0.39552107  0.66627094  0.31987357  1
  Ga  Ga112  1  0.39552107  0.66627094  0.65320690  1
  Ga  Ga113  1  0.39552107  0.66627094  0.98654024  1
  Ga  Ga114  1  0.89552107  0.16627094  0.31987357  1
  Ga  Ga115  1  0.89552107  0.16627094  0.65320690  1
  Ga  Ga116  1  0.89552107  0.16627094  0.98654024  1
  Ga  Ga117  1  0.89552107  0.66627094  0.31987357  1
  Ga  Ga118  1  0.89552107  0.66627094  0.65320690  1
  Ga  Ga119  1  0.89552107  0.66627094  0.98654024  1
  Ga  Ga120  1  0.14552107  0.08372906  0.15320690  1
  Ga  Ga121  1  0.14552107  0.08372906  0.48654024  1
  Ga  Ga122  1  0.14552107  0.08372906  0.81987357  1
  Ga  Ga123  1  0.14552107  0.58372906  0.15320690  1
  Ga  Ga124  1  0.14552107  0.58372906  0.48654024  1
  Ga  Ga125  1  0.14552107  0.58372906  0.81987357  1
  Ga  Ga126  1  0.64552107  0.08372906  0.15320690  1
  Ga  Ga127  1  0.64552107  0.08372906  0.48654024  1
  Ga  Ga128  1  0.64552107  0.08372906  0.81987357  1
  Ga  Ga129  1  0.64552107  0.58372906  0.15320690  1
  Ga  Ga130  1  0.64552107  0.58372906  0.48654024  1
  Ga  Ga131  1  0.64552107  0.58372906  0.81987357  1
  Ga  Ga132  1  0.39552107  0.33372906  0.31987357  1
  Ga  Ga133  1  0.39552107  0.33372906  0.65320690  1
  Ga  Ga134  1  0.39552107  0.33372906  0.98654024  1
  Ga  Ga135  1  0.39552107  0.83372906  0.31987357  1
  Ga  Ga136  1  0.39552107  0.83372906  0.65320690  1
  Ga  Ga137  1  0.39552107  0.83372906  0.98654024  1
  Ga  Ga138  1  0.89552107  0.33372906  0.31987357  1
  Ga  Ga139  1  0.89552107  0.33372906  0.65320690  1
  Ga  Ga140  1  0.89552107  0.33372906  0.98654024  1
  Ga  Ga141  1  0.89552107  0.83372906  0.31987357  1
  Ga  Ga142  1  0.89552107  0.83372906  0.65320690  1
  Ga  Ga143  1  0.89552107  0.83372906  0.98654024  1
  O  O144  1  0.14790820  0.08192432  0.03359984  1
  O  O145  1  0.14790820  0.08192432  0.36693317  1
  O  O146  1  0.14790820  0.08192432  0.70026651  1
  O  O147  1  0.14790820  0.58192432  0.03359984  1
  O  O148  1  0.14790820  0.58192432  0.36693317  1
  O  O149  1  0.14790820  0.58192432  0.70026651  1
  O  O150  1  0.64790820  0.08192432  0.03359984  1
  O  O151  1  0.64790820  0.08192432  0.36693317  1
  O  O152  1  0.64790820  0.08192432  0.70026651  1
  O  O153  1  0.64790820  0.58192432  0.03359984  1
  O  O154  1  0.64790820  0.58192432  0.36693317  1
  O  O155  1  0.64790820  0.58192432  0.70026651  1
  O  O156  1  0.39790820  0.33192432  0.20026651  1
  O  O157  1  0.39790820  0.33192432  0.53359984  1
  O  O158  1  0.39790820  0.33192432  0.86693317  1
  O  O159  1  0.39790820  0.83192432  0.20026651  1
  O  O160  1  0.39790820  0.83192432  0.53359984  1
  O  O161  1  0.39790820  0.83192432  0.86693317  1
  O  O162  1  0.89790820  0.33192432  0.20026651  1
  O  O163  1  0.89790820  0.33192432  0.53359984  1
  O  O164  1  0.89790820  0.33192432  0.86693317  1
  O  O165  1  0.89790820  0.83192432  0.20026651  1
  O  O166  1  0.89790820  0.83192432  0.53359984  1
  O  O167  1  0.89790820  0.83192432  0.86693317  1
  O  O168  1  0.10209180  0.16807568  0.20026651  1
  O  O169  1  0.10209180  0.16807568  0.53359984  1
  O  O170  1  0.10209180  0.16807568  0.86693317  1
  O  O171  1  0.10209180  0.66807568  0.20026651  1
  O  O172  1  0.10209180  0.66807568  0.53359984  1
  O  O173  1  0.10209180  0.66807568  0.86693317  1
  O  O174  1  0.60209180  0.16807568  0.20026651  1
  O  O175  1  0.60209180  0.16807568  0.53359984  1
  O  O176  1  0.60209180  0.16807568  0.86693317  1
  O  O177  1  0.60209180  0.66807568  0.20026651  1
  O  O178  1  0.60209180  0.66807568  0.53359984  1
  O  O179  1  0.60209180  0.66807568  0.86693317  1
  O  O180  1  0.35209180  0.41807568  0.36693317  1
  O  O181  1  0.35209180  0.41807568  0.70026651  1
  O  O182  1  0.35209180  0.41807568  1.03359984  1
  O  O183  1  0.35209180  0.91807568  0.36693317  1
  O  O184  1  0.35209180  0.91807568  0.70026651  1
  O  O185  1  0.35209180  0.91807568  1.03359984  1
  O  O186  1  0.85209180  0.41807568  0.36693317  1
  O  O187  1  0.85209180  0.41807568  0.70026651  1
  O  O188  1  0.85209180  0.41807568  1.03359984  1
  O  O189  1  0.85209180  0.91807568  0.36693317  1
  O  O190  1  0.85209180  0.91807568  0.70026651  1
  O  O191  1  0.85209180  0.91807568  1.03359984  1
  O  O192  1  0.15502893  0.25000000  0.02486734  1
  O  O193  1  0.15502893  0.25000000  0.35820068  1
  O  O194  1  0.15502893  0.25000000  0.69153401  1
  O  O195  1  0.15502893  0.75000000  0.02486734  1
  O  O196  1  0.15502893  0.75000000  0.35820068  1
  O  O197  1  0.15502893  0.75000000  0.69153401  1
  O  O198  1  0.65502893  0.25000000  0.02486734  1
  O  O199  1  0.65502893  0.25000000  0.35820068  1
  O  O200  1  0.65502893  0.25000000  0.69153401  1
  O  O201  1  0.65502893  0.75000000  0.02486734  1
  O  O202  1  0.65502893  0.75000000  0.35820068  1
  O  O203  1  0.65502893  0.75000000  0.69153401  1
  O  O204  1  0.40502893  0.50000000  0.19153401  1
  O  O205  1  0.40502893  0.50000000  0.52486734  1
  O  O206  1  0.40502893  0.50000000  0.85820068  1
  O  O207  1  0.40502893  1.00000000  0.19153401  1
  O  O208  1  0.40502893  1.00000000  0.52486734  1
  O  O209  1  0.40502893  1.00000000  0.85820068  1
  O  O210  1  0.90502893  0.50000000  0.19153401  1
  O  O211  1  0.90502893  0.50000000  0.52486734  1
  O  O212  1  0.90502893  0.50000000  0.85820068  1
  O  O213  1  0.90502893  1.00000000  0.19153401  1
  O  O214  1  0.90502893  1.00000000  0.52486734  1
  O  O215  1  0.90502893  1.00000000  0.85820068  1
  O  O216  1  0.09497107  0.00000000  0.19153401  1
  O  O217  1  0.09497107  0.00000000  0.52486734  1
  O  O218  1  0.09497107  0.00000000  0.85820068  1
  O  O219  1  0.09497107  0.50000000  0.19153401  1
  O  O220  1  0.09497107  0.50000000  0.52486734  1
  O  O221  1  0.09497107  0.50000000  0.85820068  1
  O  O222  1  0.59497107  0.00000000  0.19153401  1
  O  O223  1  0.59497107  0.00000000  0.52486734  1
  O  O224  1  0.59497107  0.00000000  0.85820068  1
  O  O225  1  0.59497107  0.50000000  0.19153401  1
  O  O226  1  0.59497107  0.50000000  0.52486734  1
  O  O227  1  0.59497107  0.50000000  0.85820068  1
  O  O228  1  0.34497107  0.25000000  0.35820068  1
  O  O229  1  0.34497107  0.25000000  0.69153401  1
  O  O230  1  0.34497107  0.25000000  1.02486734  1
  O  O231  1  0.34497107  0.75000000  0.35820068  1
  O  O232  1  0.34497107  0.75000000  0.69153401  1
  O  O233  1  0.34497107  0.75000000  1.02486734  1
  O  O234  1  0.84497107  0.25000000  0.35820068  1
  O  O235  1  0.84497107  0.25000000  0.69153401  1
  O  O236  1  0.84497107  0.25000000  1.02486734  1
  O  O237  1  0.84497107  0.75000000  0.35820068  1
  O  O238  1  0.84497107  0.75000000  0.69153401  1
  O  O239  1  0.84497107  0.75000000  1.02486734  1
  O  O240  1  -0.10209180  0.16807568  0.20026651  1
  O  O241  1  -0.10209180  0.16807568  0.53359984  1
  O  O242  1  -0.10209180  0.16807568  0.86693317  1
  O  O243  1  -0.10209180  0.66807568  0.20026651  1
  O  O244  1  -0.10209180  0.66807568  0.53359984  1
  O  O245  1  -0.10209180  0.66807568  0.86693317  1
  O  O246  1  0.39790820  0.16807568  0.20026651  1
  O  O247  1  0.39790820  0.16807568  0.53359984  1
  O  O248  1  0.39790820  0.16807568  0.86693317  1
  O  O249  1  0.39790820  0.66807568  0.20026651  1
  O  O250  1  0.39790820  0.66807568  0.53359984  1
  O  O251  1  0.39790820  0.66807568  0.86693317  1
  O  O252  1  0.14790820  0.41807568  0.36693317  1
  O  O253  1  0.14790820  0.41807568  0.70026651  1
  O  O254  1  0.14790820  0.41807568  1.03359984  1
  O  O255  1  0.14790820  0.91807568  0.36693317  1
  O  O256  1  0.14790820  0.91807568  0.70026651  1
  O  O257  1  0.14790820  0.91807568  1.03359984  1
  O  O258  1  0.64790820  0.41807568  0.36693317  1
  O  O259  1  0.64790820  0.41807568  0.70026651  1
  O  O260  1  0.64790820  0.41807568  1.03359984  1
  O  O261  1  0.64790820  0.91807568  0.36693317  1
  O  O262  1  0.64790820  0.91807568  0.70026651  1
  O  O263  1  0.64790820  0.91807568  1.03359984  1
  O  O264  1  0.35209180  0.08192432  0.03359984  1
  O  O265  1  0.35209180  0.08192432  0.36693317  1
  O  O266  1  0.35209180  0.08192432  0.70026651  1
  O  O267  1  0.35209180  0.58192432  0.03359984  1
  O  O268  1  0.35209180  0.58192432  0.36693317  1
  O  O269  1  0.35209180  0.58192432  0.70026651  1
  O  O270  1  0.85209180  0.08192432  0.03359984  1
  O  O271  1  0.85209180  0.08192432  0.36693317  1
  O  O272  1  0.85209180  0.08192432  0.70026651  1
  O  O273  1  0.85209180  0.58192432  0.03359984  1
  O  O274  1  0.85209180  0.58192432  0.36693317  1
  O  O275  1  0.85209180  0.58192432  0.70026651  1
  O  O276  1  0.60209180  0.33192432  0.20026651  1
  O  O277  1  0.60209180  0.33192432  0.53359984  1
  O  O278  1  0.60209180  0.33192432  0.86693317  1
  O  O279  1  0.60209180  0.83192432  0.20026651  1
  O  O280  1  0.60209180  0.83192432  0.53359984  1
  O  O281  1  0.60209180  0.83192432  0.86693317  1
  O  O282  1  1.10209180  0.33192432  0.20026651  1
  O  O283  1  1.10209180  0.33192432  0.53359984  1
  O  O284  1  1.10209180  0.33192432  0.86693317  1
  O  O285  1  1.10209180  0.83192432  0.20026651  1
  O  O286  1  1.10209180  0.83192432  0.53359984  1
  O  O287  1  1.10209180  0.83192432  0.86693317  1
  O  O288  1  0.00000000  0.16268243  0.03096090  1
  O  O289  1  0.00000000  0.16268243  0.36429424  1
  O  O290  1  0.00000000  0.16268243  0.69762757  1
  O  O291  1  0.00000000  0.66268243  0.03096090  1
  O  O292  1  0.00000000  0.66268243  0.36429424  1
  O  O293  1  0.00000000  0.66268243  0.69762757  1
  O  O294  1  0.50000000  0.16268243  0.03096090  1
  O  O295  1  0.50000000  0.16268243  0.36429424  1
  O  O296  1  0.50000000  0.16268243  0.69762757  1
  O  O297  1  0.50000000  0.66268243  0.03096090  1
  O  O298  1  0.50000000  0.66268243  0.36429424  1
  O  O299  1  0.50000000  0.66268243  0.69762757  1
  O  O300  1  0.25000000  0.41268243  0.19762757  1
  O  O301  1  0.25000000  0.41268243  0.53096090  1
  O  O302  1  0.25000000  0.41268243  0.86429424  1
  O  O303  1  0.25000000  0.91268243  0.19762757  1
  O  O304  1  0.25000000  0.91268243  0.53096090  1
  O  O305  1  0.25000000  0.91268243  0.86429424  1
  O  O306  1  0.75000000  0.41268243  0.19762757  1
  O  O307  1  0.75000000  0.41268243  0.53096090  1
  O  O308  1  0.75000000  0.41268243  0.86429424  1
  O  O309  1  0.75000000  0.91268243  0.19762757  1
  O  O310  1  0.75000000  0.91268243  0.53096090  1
  O  O311  1  0.75000000  0.91268243  0.86429424  1
  O  O312  1  0.00000000  0.33731757  0.03096090  1
  O  O313  1  0.00000000  0.33731757  0.36429424  1
  O  O314  1  0.00000000  0.33731757  0.69762757  1
  O  O315  1  0.00000000  0.83731757  0.03096090  1
  O  O316  1  0.00000000  0.83731757  0.36429424  1
  O  O317  1  0.00000000  0.83731757  0.69762757  1
  O  O318  1  0.50000000  0.33731757  0.03096090  1
  O  O319  1  0.50000000  0.33731757  0.36429424  1
  O  O320  1  0.50000000  0.33731757  0.69762757  1
  O  O321  1  0.50000000  0.83731757  0.03096090  1
  O  O322  1  0.50000000  0.83731757  0.36429424  1
  O  O323  1  0.50000000  0.83731757  0.69762757  1
  O  O324  1  0.25000000  0.58731757  0.19762757  1
  O  O325  1  0.25000000  0.58731757  0.53096090  1
  O  O326  1  0.25000000  0.58731757  0.86429424  1
  O  O327  1  0.25000000  1.08731757  0.19762757  1
  O  O328  1  0.25000000  1.08731757  0.53096090  1
  O  O329  1  0.25000000  1.08731757  0.86429424  1
  O  O330  1  0.75000000  0.58731757  0.19762757  1
  O  O331  1  0.75000000  0.58731757  0.53096090  1
  O  O332  1  0.75000000  0.58731757  0.86429424  1
  O  O333  1  0.75000000  1.08731757  0.19762757  1
  O  O334  1  0.75000000  1.08731757  0.53096090  1
  O  O335  1  0.75000000  1.08731757  0.86429424  1
