# generated using pymatgen
data_V2Pb3O8
_symmetry_space_group_name_H-M   'P 1'
_cell_length_a   22.05892623
_cell_length_b   19.07508224
_cell_length_c   18.50737096
_cell_angle_alpha   90.00000000
_cell_angle_beta   114.70104063
_cell_angle_gamma   90.00000000
_symmetry_Int_Tables_number   1
_chemical_formula_structural   V2Pb3O8
_chemical_formula_sum   'V72 Pb108 O288'
_cell_volume   7074.90691420
_cell_formula_units_Z   36
loop_
 _symmetry_equiv_pos_site_id
 _symmetry_equiv_pos_as_xyz
  1  'x, y, z'
loop_
 _atom_site_type_symbol
 _atom_site_label
 _atom_site_symmetry_multiplicity
 _atom_site_fract_x
 _atom_site_fract_y
 _atom_site_fract_z
 _atom_site_occupancy
  V  V0  1  0.26515662  0.17211014  0.04811149  1
  V  V1  1  0.26515662  0.17211014  0.54811149  1
  V  V2  1  0.26515662  0.50544347  0.04811149  1
  V  V3  1  0.26515662  0.50544347  0.54811149  1
  V  V4  1  0.26515662  0.83877681  0.04811149  1
  V  V5  1  0.26515662  0.83877681  0.54811149  1
  V  V6  1  0.59848995  0.17211014  0.04811149  1
  V  V7  1  0.59848995  0.17211014  0.54811149  1
  V  V8  1  0.59848995  0.50544347  0.04811149  1
  V  V9  1  0.59848995  0.50544347  0.54811149  1
  V  V10  1  0.59848995  0.83877681  0.04811149  1
  V  V11  1  0.59848995  0.83877681  0.54811149  1
  V  V12  1  0.93182329  0.17211014  0.04811149  1
  V  V13  1  0.93182329  0.17211014  0.54811149  1
  V  V14  1  0.93182329  0.50544347  0.04811149  1
  V  V15  1  0.93182329  0.50544347  0.54811149  1
  V  V16  1  0.93182329  0.83877681  0.04811149  1
  V  V17  1  0.93182329  0.83877681  0.54811149  1
  V  V18  1  0.06817671  0.00544347  0.20188851  1
  V  V19  1  0.06817671  0.00544347  0.70188851  1
  V  V20  1  0.06817671  0.33877681  0.20188851  1
  V  V21  1  0.06817671  0.33877681  0.70188851  1
  V  V22  1  0.06817671  0.67211014  0.20188851  1
  V  V23  1  0.06817671  0.67211014  0.70188851  1
  V  V24  1  0.40151005  0.00544347  0.20188851  1
  V  V25  1  0.40151005  0.00544347  0.70188851  1
  V  V26  1  0.40151005  0.33877681  0.20188851  1
  V  V27  1  0.40151005  0.33877681  0.70188851  1
  V  V28  1  0.40151005  0.67211014  0.20188851  1
  V  V29  1  0.40151005  0.67211014  0.70188851  1
  V  V30  1  0.73484338  0.00544347  0.20188851  1
  V  V31  1  0.73484338  0.00544347  0.70188851  1
  V  V32  1  0.73484338  0.33877681  0.20188851  1
  V  V33  1  0.73484338  0.33877681  0.70188851  1
  V  V34  1  0.73484338  0.67211014  0.20188851  1
  V  V35  1  0.73484338  0.67211014  0.70188851  1
  V  V36  1  0.06817671  0.16122319  0.45188851  1
  V  V37  1  0.06817671  0.16122319  0.95188851  1
  V  V38  1  0.06817671  0.49455653  0.45188851  1
  V  V39  1  0.06817671  0.49455653  0.95188851  1
  V  V40  1  0.06817671  0.82788986  0.45188851  1
  V  V41  1  0.06817671  0.82788986  0.95188851  1
  V  V42  1  0.40151005  0.16122319  0.45188851  1
  V  V43  1  0.40151005  0.16122319  0.95188851  1
  V  V44  1  0.40151005  0.49455653  0.45188851  1
  V  V45  1  0.40151005  0.49455653  0.95188851  1
  V  V46  1  0.40151005  0.82788986  0.45188851  1
  V  V47  1  0.40151005  0.82788986  0.95188851  1
  V  V48  1  0.73484338  0.16122319  0.45188851  1
  V  V49  1  0.73484338  0.16122319  0.95188851  1
  V  V50  1  0.73484338  0.49455653  0.45188851  1
  V  V51  1  0.73484338  0.49455653  0.95188851  1
  V  V52  1  0.73484338  0.82788986  0.45188851  1
  V  V53  1  0.73484338  0.82788986  0.95188851  1
  V  V54  1  0.26515662  0.32788986  0.29811149  1
  V  V55  1  0.26515662  0.32788986  0.79811149  1
  V  V56  1  0.26515662  0.66122319  0.29811149  1
  V  V57  1  0.26515662  0.66122319  0.79811149  1
  V  V58  1  0.26515662  0.99455653  0.29811149  1
  V  V59  1  0.26515662  0.99455653  0.79811149  1
  V  V60  1  0.59848995  0.32788986  0.29811149  1
  V  V61  1  0.59848995  0.32788986  0.79811149  1
  V  V62  1  0.59848995  0.66122319  0.29811149  1
  V  V63  1  0.59848995  0.66122319  0.79811149  1
  V  V64  1  0.59848995  0.99455653  0.29811149  1
  V  V65  1  0.59848995  0.99455653  0.79811149  1
  V  V66  1  0.93182329  0.32788986  0.29811149  1
  V  V67  1  0.93182329  0.32788986  0.79811149  1
  V  V68  1  0.93182329  0.66122319  0.29811149  1
  V  V69  1  0.93182329  0.66122319  0.79811149  1
  V  V70  1  0.93182329  0.99455653  0.29811149  1
  V  V71  1  0.93182329  0.99455653  0.79811149  1
  Pb  Pb72  1  0.20252716  0.03421992  0.10337396  1
  Pb  Pb73  1  0.20252716  0.03421992  0.60337396  1
  Pb  Pb74  1  0.20252716  0.36755326  0.10337396  1
  Pb  Pb75  1  0.20252716  0.36755326  0.60337396  1
  Pb  Pb76  1  0.20252716  0.70088659  0.10337396  1
  Pb  Pb77  1  0.20252716  0.70088659  0.60337396  1
  Pb  Pb78  1  0.53586050  0.03421992  0.10337396  1
  Pb  Pb79  1  0.53586050  0.03421992  0.60337396  1
  Pb  Pb80  1  0.53586050  0.36755326  0.10337396  1
  Pb  Pb81  1  0.53586050  0.36755326  0.60337396  1
  Pb  Pb82  1  0.53586050  0.70088659  0.10337396  1
  Pb  Pb83  1  0.53586050  0.70088659  0.60337396  1
  Pb  Pb84  1  0.86919383  0.03421992  0.10337396  1
  Pb  Pb85  1  0.86919383  0.03421992  0.60337396  1
  Pb  Pb86  1  0.86919383  0.36755326  0.10337396  1
  Pb  Pb87  1  0.86919383  0.36755326  0.60337396  1
  Pb  Pb88  1  0.86919383  0.70088659  0.10337396  1
  Pb  Pb89  1  0.86919383  0.70088659  0.60337396  1
  Pb  Pb90  1  0.13080617  0.20088659  0.14662604  1
  Pb  Pb91  1  0.13080617  0.20088659  0.64662604  1
  Pb  Pb92  1  0.13080617  0.53421992  0.14662604  1
  Pb  Pb93  1  0.13080617  0.53421992  0.64662604  1
  Pb  Pb94  1  0.13080617  0.86755326  0.14662604  1
  Pb  Pb95  1  0.13080617  0.86755326  0.64662604  1
  Pb  Pb96  1  0.46413950  0.20088659  0.14662604  1
  Pb  Pb97  1  0.46413950  0.20088659  0.64662604  1
  Pb  Pb98  1  0.46413950  0.53421992  0.14662604  1
  Pb  Pb99  1  0.46413950  0.53421992  0.64662604  1
  Pb  Pb100  1  0.46413950  0.86755326  0.14662604  1
  Pb  Pb101  1  0.46413950  0.86755326  0.64662604  1
  Pb  Pb102  1  0.79747284  0.20088659  0.14662604  1
  Pb  Pb103  1  0.79747284  0.20088659  0.64662604  1
  Pb  Pb104  1  0.79747284  0.53421992  0.14662604  1
  Pb  Pb105  1  0.79747284  0.53421992  0.64662604  1
  Pb  Pb106  1  0.79747284  0.86755326  0.14662604  1
  Pb  Pb107  1  0.79747284  0.86755326  0.64662604  1
  Pb  Pb108  1  0.13080617  0.29911341  0.39662604  1
  Pb  Pb109  1  0.13080617  0.29911341  0.89662604  1
  Pb  Pb110  1  0.13080617  0.63244674  0.39662604  1
  Pb  Pb111  1  0.13080617  0.63244674  0.89662604  1
  Pb  Pb112  1  0.13080617  0.96578008  0.39662604  1
  Pb  Pb113  1  0.13080617  0.96578008  0.89662604  1
  Pb  Pb114  1  0.46413950  0.29911341  0.39662604  1
  Pb  Pb115  1  0.46413950  0.29911341  0.89662604  1
  Pb  Pb116  1  0.46413950  0.63244674  0.39662604  1
  Pb  Pb117  1  0.46413950  0.63244674  0.89662604  1
  Pb  Pb118  1  0.46413950  0.96578008  0.39662604  1
  Pb  Pb119  1  0.46413950  0.96578008  0.89662604  1
  Pb  Pb120  1  0.79747284  0.29911341  0.39662604  1
  Pb  Pb121  1  0.79747284  0.29911341  0.89662604  1
  Pb  Pb122  1  0.79747284  0.63244674  0.39662604  1
  Pb  Pb123  1  0.79747284  0.63244674  0.89662604  1
  Pb  Pb124  1  0.79747284  0.96578008  0.39662604  1
  Pb  Pb125  1  0.79747284  0.96578008  0.89662604  1
  Pb  Pb126  1  0.20252716  0.13244674  0.35337396  1
  Pb  Pb127  1  0.20252716  0.13244674  0.85337396  1
  Pb  Pb128  1  0.20252716  0.46578008  0.35337396  1
  Pb  Pb129  1  0.20252716  0.46578008  0.85337396  1
  Pb  Pb130  1  0.20252716  0.79911341  0.35337396  1
  Pb  Pb131  1  0.20252716  0.79911341  0.85337396  1
  Pb  Pb132  1  0.53586050  0.13244674  0.35337396  1
  Pb  Pb133  1  0.53586050  0.13244674  0.85337396  1
  Pb  Pb134  1  0.53586050  0.46578008  0.35337396  1
  Pb  Pb135  1  0.53586050  0.46578008  0.85337396  1
  Pb  Pb136  1  0.53586050  0.79911341  0.35337396  1
  Pb  Pb137  1  0.53586050  0.79911341  0.85337396  1
  Pb  Pb138  1  0.86919383  0.13244674  0.35337396  1
  Pb  Pb139  1  0.86919383  0.13244674  0.85337396  1
  Pb  Pb140  1  0.86919383  0.46578008  0.35337396  1
  Pb  Pb141  1  0.86919383  0.46578008  0.85337396  1
  Pb  Pb142  1  0.86919383  0.79911341  0.35337396  1
  Pb  Pb143  1  0.86919383  0.79911341  0.85337396  1
  Pb  Pb144  1  0.00000000  0.16666667  0.25000000  1
  Pb  Pb145  1  0.00000000  0.16666667  0.75000000  1
  Pb  Pb146  1  0.00000000  0.50000000  0.25000000  1
  Pb  Pb147  1  0.00000000  0.50000000  0.75000000  1
  Pb  Pb148  1  0.00000000  0.83333333  0.25000000  1
  Pb  Pb149  1  0.00000000  0.83333333  0.75000000  1
  Pb  Pb150  1  0.33333333  0.16666667  0.25000000  1
  Pb  Pb151  1  0.33333333  0.16666667  0.75000000  1
  Pb  Pb152  1  0.33333333  0.50000000  0.25000000  1
  Pb  Pb153  1  0.33333333  0.50000000  0.75000000  1
  Pb  Pb154  1  0.33333333  0.83333333  0.25000000  1
  Pb  Pb155  1  0.33333333  0.83333333  0.75000000  1
  Pb  Pb156  1  0.66666667  0.16666667  0.25000000  1
  Pb  Pb157  1  0.66666667  0.16666667  0.75000000  1
  Pb  Pb158  1  0.66666667  0.50000000  0.25000000  1
  Pb  Pb159  1  0.66666667  0.50000000  0.75000000  1
  Pb  Pb160  1  0.66666667  0.83333333  0.25000000  1
  Pb  Pb161  1  0.66666667  0.83333333  0.75000000  1
  Pb  Pb162  1  0.00000000  0.00000000  0.00000000  1
  Pb  Pb163  1  -0.00000000  0.00000000  0.50000000  1
  Pb  Pb164  1  0.00000000  0.33333333  0.00000000  1
  Pb  Pb165  1  -0.00000000  0.33333333  0.50000000  1
  Pb  Pb166  1  0.00000000  0.66666667  0.00000000  1
  Pb  Pb167  1  -0.00000000  0.66666667  0.50000000  1
  Pb  Pb168  1  0.33333333  0.00000000  0.00000000  1
  Pb  Pb169  1  0.33333333  0.00000000  0.50000000  1
  Pb  Pb170  1  0.33333333  0.33333333  0.00000000  1
  Pb  Pb171  1  0.33333333  0.33333333  0.50000000  1
  Pb  Pb172  1  0.33333333  0.66666667  0.00000000  1
  Pb  Pb173  1  0.33333333  0.66666667  0.50000000  1
  Pb  Pb174  1  0.66666667  0.00000000  0.00000000  1
  Pb  Pb175  1  0.66666667  0.00000000  0.50000000  1
  Pb  Pb176  1  0.66666667  0.33333333  0.00000000  1
  Pb  Pb177  1  0.66666667  0.33333333  0.50000000  1
  Pb  Pb178  1  0.66666667  0.66666667  0.00000000  1
  Pb  Pb179  1  0.66666667  0.66666667  0.50000000  1
  O  O180  1  0.01313550  0.17901203  0.11423822  1
  O  O181  1  0.01313550  0.17901203  0.61423822  1
  O  O182  1  0.01313550  0.51234537  0.11423822  1
  O  O183  1  0.01313550  0.51234537  0.61423822  1
  O  O184  1  0.01313550  0.84567870  0.11423822  1
  O  O185  1  0.01313550  0.84567870  0.61423822  1
  O  O186  1  0.34646883  0.17901203  0.11423822  1
  O  O187  1  0.34646883  0.17901203  0.61423822  1
  O  O188  1  0.34646883  0.51234537  0.11423822  1
  O  O189  1  0.34646883  0.51234537  0.61423822  1
  O  O190  1  0.34646883  0.84567870  0.11423822  1
  O  O191  1  0.34646883  0.84567870  0.61423822  1
  O  O192  1  0.67980216  0.17901203  0.11423822  1
  O  O193  1  0.67980216  0.17901203  0.61423822  1
  O  O194  1  0.67980216  0.51234537  0.11423822  1
  O  O195  1  0.67980216  0.51234537  0.61423822  1
  O  O196  1  0.67980216  0.84567870  0.11423822  1
  O  O197  1  0.67980216  0.84567870  0.61423822  1
  O  O198  1  0.32019784  0.01234537  0.13576178  1
  O  O199  1  0.32019784  0.01234537  0.63576178  1
  O  O200  1  0.32019784  0.34567870  0.13576178  1
  O  O201  1  0.32019784  0.34567870  0.63576178  1
  O  O202  1  0.32019784  0.67901203  0.13576178  1
  O  O203  1  0.32019784  0.67901203  0.63576178  1
  O  O204  1  0.65353117  0.01234537  0.13576178  1
  O  O205  1  0.65353117  0.01234537  0.63576178  1
  O  O206  1  0.65353117  0.34567870  0.13576178  1
  O  O207  1  0.65353117  0.34567870  0.63576178  1
  O  O208  1  0.65353117  0.67901203  0.13576178  1
  O  O209  1  0.65353117  0.67901203  0.63576178  1
  O  O210  1  0.98686450  0.01234537  0.13576178  1
  O  O211  1  0.98686450  0.01234537  0.63576178  1
  O  O212  1  0.98686450  0.34567870  0.13576178  1
  O  O213  1  0.98686450  0.34567870  0.63576178  1
  O  O214  1  0.98686450  0.67901203  0.13576178  1
  O  O215  1  0.98686450  0.67901203  0.63576178  1
  O  O216  1  0.32019784  0.15432130  0.38576178  1
  O  O217  1  0.32019784  0.15432130  0.88576178  1
  O  O218  1  0.32019784  0.48765463  0.38576178  1
  O  O219  1  0.32019784  0.48765463  0.88576178  1
  O  O220  1  0.32019784  0.82098797  0.38576178  1
  O  O221  1  0.32019784  0.82098797  0.88576178  1
  O  O222  1  0.65353117  0.15432130  0.38576178  1
  O  O223  1  0.65353117  0.15432130  0.88576178  1
  O  O224  1  0.65353117  0.48765463  0.38576178  1
  O  O225  1  0.65353117  0.48765463  0.88576178  1
  O  O226  1  0.65353117  0.82098797  0.38576178  1
  O  O227  1  0.65353117  0.82098797  0.88576178  1
  O  O228  1  0.98686450  0.15432130  0.38576178  1
  O  O229  1  0.98686450  0.15432130  0.88576178  1
  O  O230  1  0.98686450  0.48765463  0.38576178  1
  O  O231  1  0.98686450  0.48765463  0.88576178  1
  O  O232  1  0.98686450  0.82098797  0.38576178  1
  O  O233  1  0.98686450  0.82098797  0.88576178  1
  O  O234  1  0.01313550  0.32098797  0.36423822  1
  O  O235  1  0.01313550  0.32098797  0.86423822  1
  O  O236  1  0.01313550  0.65432130  0.36423822  1
  O  O237  1  0.01313550  0.65432130  0.86423822  1
  O  O238  1  0.01313550  0.98765463  0.36423822  1
  O  O239  1  0.01313550  0.98765463  0.86423822  1
  O  O240  1  0.34646883  0.32098797  0.36423822  1
  O  O241  1  0.34646883  0.32098797  0.86423822  1
  O  O242  1  0.34646883  0.65432130  0.36423822  1
  O  O243  1  0.34646883  0.65432130  0.86423822  1
  O  O244  1  0.34646883  0.98765463  0.36423822  1
  O  O245  1  0.34646883  0.98765463  0.86423822  1
  O  O246  1  0.67980216  0.32098797  0.36423822  1
  O  O247  1  0.67980216  0.32098797  0.86423822  1
  O  O248  1  0.67980216  0.65432130  0.36423822  1
  O  O249  1  0.67980216  0.65432130  0.86423822  1
  O  O250  1  0.67980216  0.98765463  0.36423822  1
  O  O251  1  0.67980216  0.98765463  0.86423822  1
  O  O252  1  0.22151133  0.15921186  0.10681826  1
  O  O253  1  0.22151133  0.15921186  0.60681826  1
  O  O254  1  0.22151133  0.49254520  0.10681826  1
  O  O255  1  0.22151133  0.49254520  0.60681826  1
  O  O256  1  0.22151133  0.82587853  0.10681826  1
  O  O257  1  0.22151133  0.82587853  0.60681826  1
  O  O258  1  0.55484467  0.15921186  0.10681826  1
  O  O259  1  0.55484467  0.15921186  0.60681826  1
  O  O260  1  0.55484467  0.49254520  0.10681826  1
  O  O261  1  0.55484467  0.49254520  0.60681826  1
  O  O262  1  0.55484467  0.82587853  0.10681826  1
  O  O263  1  0.55484467  0.82587853  0.60681826  1
  O  O264  1  0.88817800  0.15921186  0.10681826  1
  O  O265  1  0.88817800  0.15921186  0.60681826  1
  O  O266  1  0.88817800  0.49254520  0.10681826  1
  O  O267  1  0.88817800  0.49254520  0.60681826  1
  O  O268  1  0.88817800  0.82587853  0.10681826  1
  O  O269  1  0.88817800  0.82587853  0.60681826  1
  O  O270  1  0.11182200  0.32587853  0.14318174  1
  O  O271  1  0.11182200  0.32587853  0.64318174  1
  O  O272  1  0.11182200  0.65921186  0.14318174  1
  O  O273  1  0.11182200  0.65921186  0.64318174  1
  O  O274  1  0.11182200  0.99254520  0.14318174  1
  O  O275  1  0.11182200  0.99254520  0.64318174  1
  O  O276  1  0.44515533  0.32587853  0.14318174  1
  O  O277  1  0.44515533  0.32587853  0.64318174  1
  O  O278  1  0.44515533  0.65921186  0.14318174  1
  O  O279  1  0.44515533  0.65921186  0.64318174  1
  O  O280  1  0.44515533  0.99254520  0.14318174  1
  O  O281  1  0.44515533  0.99254520  0.64318174  1
  O  O282  1  0.77848867  0.32587853  0.14318174  1
  O  O283  1  0.77848867  0.32587853  0.64318174  1
  O  O284  1  0.77848867  0.65921186  0.14318174  1
  O  O285  1  0.77848867  0.65921186  0.64318174  1
  O  O286  1  0.77848867  0.99254520  0.14318174  1
  O  O287  1  0.77848867  0.99254520  0.64318174  1
  O  O288  1  0.11182200  0.17412147  0.39318174  1
  O  O289  1  0.11182200  0.17412147  0.89318174  1
  O  O290  1  0.11182200  0.50745480  0.39318174  1
  O  O291  1  0.11182200  0.50745480  0.89318174  1
  O  O292  1  0.11182200  0.84078814  0.39318174  1
  O  O293  1  0.11182200  0.84078814  0.89318174  1
  O  O294  1  0.44515533  0.17412147  0.39318174  1
  O  O295  1  0.44515533  0.17412147  0.89318174  1
  O  O296  1  0.44515533  0.50745480  0.39318174  1
  O  O297  1  0.44515533  0.50745480  0.89318174  1
  O  O298  1  0.44515533  0.84078814  0.39318174  1
  O  O299  1  0.44515533  0.84078814  0.89318174  1
  O  O300  1  0.77848867  0.17412147  0.39318174  1
  O  O301  1  0.77848867  0.17412147  0.89318174  1
  O  O302  1  0.77848867  0.50745480  0.39318174  1
  O  O303  1  0.77848867  0.50745480  0.89318174  1
  O  O304  1  0.77848867  0.84078814  0.39318174  1
  O  O305  1  0.77848867  0.84078814  0.89318174  1
  O  O306  1  0.22151133  0.00745480  0.35681826  1
  O  O307  1  0.22151133  0.00745480  0.85681826  1
  O  O308  1  0.22151133  0.34078814  0.35681826  1
  O  O309  1  0.22151133  0.34078814  0.85681826  1
  O  O310  1  0.22151133  0.67412147  0.35681826  1
  O  O311  1  0.22151133  0.67412147  0.85681826  1
  O  O312  1  0.55484467  0.00745480  0.35681826  1
  O  O313  1  0.55484467  0.00745480  0.85681826  1
  O  O314  1  0.55484467  0.34078814  0.35681826  1
  O  O315  1  0.55484467  0.34078814  0.85681826  1
  O  O316  1  0.55484467  0.67412147  0.35681826  1
  O  O317  1  0.55484467  0.67412147  0.85681826  1
  O  O318  1  0.88817800  0.00745480  0.35681826  1
  O  O319  1  0.88817800  0.00745480  0.85681826  1
  O  O320  1  0.88817800  0.34078814  0.35681826  1
  O  O321  1  0.88817800  0.34078814  0.85681826  1
  O  O322  1  0.88817800  0.67412147  0.35681826  1
  O  O323  1  0.88817800  0.67412147  0.85681826  1
  O  O324  1  0.24988388  0.09758130  0.48817277  1
  O  O325  1  0.24988388  0.09758130  0.98817277  1
  O  O326  1  0.24988388  0.43091464  0.48817277  1
  O  O327  1  0.24988388  0.43091464  0.98817277  1
  O  O328  1  0.24988388  0.76424797  0.48817277  1
  O  O329  1  0.24988388  0.76424797  0.98817277  1
  O  O330  1  0.58321722  0.09758130  0.48817277  1
  O  O331  1  0.58321722  0.09758130  0.98817277  1
  O  O332  1  0.58321722  0.43091464  0.48817277  1
  O  O333  1  0.58321722  0.43091464  0.98817277  1
  O  O334  1  0.58321722  0.76424797  0.48817277  1
  O  O335  1  0.58321722  0.76424797  0.98817277  1
  O  O336  1  0.91655055  0.09758130  0.48817277  1
  O  O337  1  0.91655055  0.09758130  0.98817277  1
  O  O338  1  0.91655055  0.43091464  0.48817277  1
  O  O339  1  0.91655055  0.43091464  0.98817277  1
  O  O340  1  0.91655055  0.76424797  0.48817277  1
  O  O341  1  0.91655055  0.76424797  0.98817277  1
  O  O342  1  0.08344945  0.26424797  0.26182723  1
  O  O343  1  0.08344945  0.26424797  0.76182723  1
  O  O344  1  0.08344945  0.59758130  0.26182723  1
  O  O345  1  0.08344945  0.59758130  0.76182723  1
  O  O346  1  0.08344945  0.93091464  0.26182723  1
  O  O347  1  0.08344945  0.93091464  0.76182723  1
  O  O348  1  0.41678278  0.26424797  0.26182723  1
  O  O349  1  0.41678278  0.26424797  0.76182723  1
  O  O350  1  0.41678278  0.59758130  0.26182723  1
  O  O351  1  0.41678278  0.59758130  0.76182723  1
  O  O352  1  0.41678278  0.93091464  0.26182723  1
  O  O353  1  0.41678278  0.93091464  0.76182723  1
  O  O354  1  0.75011612  0.26424797  0.26182723  1
  O  O355  1  0.75011612  0.26424797  0.76182723  1
  O  O356  1  0.75011612  0.59758130  0.26182723  1
  O  O357  1  0.75011612  0.59758130  0.76182723  1
  O  O358  1  0.75011612  0.93091464  0.26182723  1
  O  O359  1  0.75011612  0.93091464  0.76182723  1
  O  O360  1  0.24168930  0.25537016  0.23771432  1
  O  O361  1  0.24168930  0.25537016  0.73771432  1
  O  O362  1  0.24168930  0.58870350  0.23771432  1
  O  O363  1  0.24168930  0.58870350  0.73771432  1
  O  O364  1  0.24168930  0.92203683  0.23771432  1
  O  O365  1  0.24168930  0.92203683  0.73771432  1
  O  O366  1  0.57502263  0.25537016  0.23771432  1
  O  O367  1  0.57502263  0.25537016  0.73771432  1
  O  O368  1  0.57502263  0.58870350  0.23771432  1
  O  O369  1  0.57502263  0.58870350  0.73771432  1
  O  O370  1  0.57502263  0.92203683  0.23771432  1
  O  O371  1  0.57502263  0.92203683  0.73771432  1
  O  O372  1  0.90835596  0.25537016  0.23771432  1
  O  O373  1  0.90835596  0.25537016  0.73771432  1
  O  O374  1  0.90835596  0.58870350  0.23771432  1
  O  O375  1  0.90835596  0.58870350  0.73771432  1
  O  O376  1  0.90835596  0.92203683  0.23771432  1
  O  O377  1  0.90835596  0.92203683  0.73771432  1
  O  O378  1  0.09164404  0.08870350  0.01228568  1
  O  O379  1  0.09164404  0.08870350  0.51228568  1
  O  O380  1  0.09164404  0.42203683  0.01228568  1
  O  O381  1  0.09164404  0.42203683  0.51228568  1
  O  O382  1  0.09164404  0.75537016  0.01228568  1
  O  O383  1  0.09164404  0.75537016  0.51228568  1
  O  O384  1  0.42497737  0.08870350  0.01228568  1
  O  O385  1  0.42497737  0.08870350  0.51228568  1
  O  O386  1  0.42497737  0.42203683  0.01228568  1
  O  O387  1  0.42497737  0.42203683  0.51228568  1
  O  O388  1  0.42497737  0.75537016  0.01228568  1
  O  O389  1  0.42497737  0.75537016  0.51228568  1
  O  O390  1  0.75831070  0.08870350  0.01228568  1
  O  O391  1  0.75831070  0.08870350  0.51228568  1
  O  O392  1  0.75831070  0.42203683  0.01228568  1
  O  O393  1  0.75831070  0.42203683  0.51228568  1
  O  O394  1  0.75831070  0.75537016  0.01228568  1
  O  O395  1  0.75831070  0.75537016  0.51228568  1
  O  O396  1  0.09164404  0.07796317  0.26228568  1
  O  O397  1  0.09164404  0.07796317  0.76228568  1
  O  O398  1  0.09164404  0.41129650  0.26228568  1
  O  O399  1  0.09164404  0.41129650  0.76228568  1
  O  O400  1  0.09164404  0.74462984  0.26228568  1
  O  O401  1  0.09164404  0.74462984  0.76228568  1
  O  O402  1  0.42497737  0.07796317  0.26228568  1
  O  O403  1  0.42497737  0.07796317  0.76228568  1
  O  O404  1  0.42497737  0.41129650  0.26228568  1
  O  O405  1  0.42497737  0.41129650  0.76228568  1
  O  O406  1  0.42497737  0.74462984  0.26228568  1
  O  O407  1  0.42497737  0.74462984  0.76228568  1
  O  O408  1  0.75831070  0.07796317  0.26228568  1
  O  O409  1  0.75831070  0.07796317  0.76228568  1
  O  O410  1  0.75831070  0.41129650  0.26228568  1
  O  O411  1  0.75831070  0.41129650  0.76228568  1
  O  O412  1  0.75831070  0.74462984  0.26228568  1
  O  O413  1  0.75831070  0.74462984  0.76228568  1
  O  O414  1  0.24168930  0.24462984  0.48771432  1
  O  O415  1  0.24168930  0.24462984  0.98771432  1
  O  O416  1  0.24168930  0.57796317  0.48771432  1
  O  O417  1  0.24168930  0.57796317  0.98771432  1
  O  O418  1  0.24168930  0.91129650  0.48771432  1
  O  O419  1  0.24168930  0.91129650  0.98771432  1
  O  O420  1  0.57502263  0.24462984  0.48771432  1
  O  O421  1  0.57502263  0.24462984  0.98771432  1
  O  O422  1  0.57502263  0.57796317  0.48771432  1
  O  O423  1  0.57502263  0.57796317  0.98771432  1
  O  O424  1  0.57502263  0.91129650  0.48771432  1
  O  O425  1  0.57502263  0.91129650  0.98771432  1
  O  O426  1  0.90835596  0.24462984  0.48771432  1
  O  O427  1  0.90835596  0.24462984  0.98771432  1
  O  O428  1  0.90835596  0.57796317  0.48771432  1
  O  O429  1  0.90835596  0.57796317  0.98771432  1
  O  O430  1  0.90835596  0.91129650  0.48771432  1
  O  O431  1  0.90835596  0.91129650  0.98771432  1
  O  O432  1  0.24988388  0.06908536  0.23817277  1
  O  O433  1  0.24988388  0.06908536  0.73817277  1
  O  O434  1  0.24988388  0.40241870  0.23817277  1
  O  O435  1  0.24988388  0.40241870  0.73817277  1
  O  O436  1  0.24988388  0.73575203  0.23817277  1
  O  O437  1  0.24988388  0.73575203  0.73817277  1
  O  O438  1  0.58321722  0.06908536  0.23817277  1
  O  O439  1  0.58321722  0.06908536  0.73817277  1
  O  O440  1  0.58321722  0.40241870  0.23817277  1
  O  O441  1  0.58321722  0.40241870  0.73817277  1
  O  O442  1  0.58321722  0.73575203  0.23817277  1
  O  O443  1  0.58321722  0.73575203  0.73817277  1
  O  O444  1  0.91655055  0.06908536  0.23817277  1
  O  O445  1  0.91655055  0.06908536  0.73817277  1
  O  O446  1  0.91655055  0.40241870  0.23817277  1
  O  O447  1  0.91655055  0.40241870  0.73817277  1
  O  O448  1  0.91655055  0.73575203  0.23817277  1
  O  O449  1  0.91655055  0.73575203  0.73817277  1
  O  O450  1  0.08344945  0.23575203  0.01182723  1
  O  O451  1  0.08344945  0.23575203  0.51182723  1
  O  O452  1  0.08344945  0.56908536  0.01182723  1
  O  O453  1  0.08344945  0.56908536  0.51182723  1
  O  O454  1  0.08344945  0.90241870  0.01182723  1
  O  O455  1  0.08344945  0.90241870  0.51182723  1
  O  O456  1  0.41678278  0.23575203  0.01182723  1
  O  O457  1  0.41678278  0.23575203  0.51182723  1
  O  O458  1  0.41678278  0.56908536  0.01182723  1
  O  O459  1  0.41678278  0.56908536  0.51182723  1
  O  O460  1  0.41678278  0.90241870  0.01182723  1
  O  O461  1  0.41678278  0.90241870  0.51182723  1
  O  O462  1  0.75011612  0.23575203  0.01182723  1
  O  O463  1  0.75011612  0.23575203  0.51182723  1
  O  O464  1  0.75011612  0.56908536  0.01182723  1
  O  O465  1  0.75011612  0.56908536  0.51182723  1
  O  O466  1  0.75011612  0.90241870  0.01182723  1
  O  O467  1  0.75011612  0.90241870  0.51182723  1
