# generated using pymatgen
data_LiAgO2
_symmetry_space_group_name_H-M   'P 1'
_cell_length_a   14.14827438
_cell_length_b   14.52748922
_cell_length_c   15.86796259
_cell_angle_alpha   90.00000000
_cell_angle_beta   98.84283595
_cell_angle_gamma   90.00000000
_symmetry_Int_Tables_number   1
_chemical_formula_structural   LiAgO2
_chemical_formula_sum   'Li72 Ag72 O144'
_cell_volume   3222.71675382
_cell_formula_units_Z   72
loop_
 _symmetry_equiv_pos_site_id
 _symmetry_equiv_pos_as_xyz
  1  'x, y, z'
loop_
 _atom_site_type_symbol
 _atom_site_label
 _atom_site_symmetry_multiplicity
 _atom_site_fract_x
 _atom_site_fract_y
 _atom_site_fract_z
 _atom_site_occupancy
  Li  Li0  1  0.16666667  0.00000000  0.16666667  1
  Li  Li1  1  0.16666667  0.00000000  0.50000000  1
  Li  Li2  1  0.16666667  0.00000000  0.83333333  1
  Li  Li3  1  0.16666667  0.25000000  0.16666667  1
  Li  Li4  1  0.16666667  0.25000000  0.50000000  1
  Li  Li5  1  0.16666667  0.25000000  0.83333333  1
  Li  Li6  1  0.16666667  0.50000000  0.16666667  1
  Li  Li7  1  0.16666667  0.50000000  0.50000000  1
  Li  Li8  1  0.16666667  0.50000000  0.83333333  1
  Li  Li9  1  0.16666667  0.75000000  0.16666667  1
  Li  Li10  1  0.16666667  0.75000000  0.50000000  1
  Li  Li11  1  0.16666667  0.75000000  0.83333333  1
  Li  Li12  1  0.50000000  0.00000000  0.16666667  1
  Li  Li13  1  0.50000000  0.00000000  0.50000000  1
  Li  Li14  1  0.50000000  0.00000000  0.83333333  1
  Li  Li15  1  0.50000000  0.25000000  0.16666667  1
  Li  Li16  1  0.50000000  0.25000000  0.50000000  1
  Li  Li17  1  0.50000000  0.25000000  0.83333333  1
  Li  Li18  1  0.50000000  0.50000000  0.16666667  1
  Li  Li19  1  0.50000000  0.50000000  0.50000000  1
  Li  Li20  1  0.50000000  0.50000000  0.83333333  1
  Li  Li21  1  0.50000000  0.75000000  0.16666667  1
  Li  Li22  1  0.50000000  0.75000000  0.50000000  1
  Li  Li23  1  0.50000000  0.75000000  0.83333333  1
  Li  Li24  1  0.83333333  0.00000000  0.16666667  1
  Li  Li25  1  0.83333333  0.00000000  0.50000000  1
  Li  Li26  1  0.83333333  0.00000000  0.83333333  1
  Li  Li27  1  0.83333333  0.25000000  0.16666667  1
  Li  Li28  1  0.83333333  0.25000000  0.50000000  1
  Li  Li29  1  0.83333333  0.25000000  0.83333333  1
  Li  Li30  1  0.83333333  0.50000000  0.16666667  1
  Li  Li31  1  0.83333333  0.50000000  0.50000000  1
  Li  Li32  1  0.83333333  0.50000000  0.83333333  1
  Li  Li33  1  0.83333333  0.75000000  0.16666667  1
  Li  Li34  1  0.83333333  0.75000000  0.50000000  1
  Li  Li35  1  0.83333333  0.75000000  0.83333333  1
  Li  Li36  1  0.16666667  0.12500000  0.00000000  1
  Li  Li37  1  0.16666667  0.12500000  0.33333333  1
  Li  Li38  1  0.16666667  0.12500000  0.66666667  1
  Li  Li39  1  0.16666667  0.37500000  0.00000000  1
  Li  Li40  1  0.16666667  0.37500000  0.33333333  1
  Li  Li41  1  0.16666667  0.37500000  0.66666667  1
  Li  Li42  1  0.16666667  0.62500000  0.00000000  1
  Li  Li43  1  0.16666667  0.62500000  0.33333333  1
  Li  Li44  1  0.16666667  0.62500000  0.66666667  1
  Li  Li45  1  0.16666667  0.87500000  0.00000000  1
  Li  Li46  1  0.16666667  0.87500000  0.33333333  1
  Li  Li47  1  0.16666667  0.87500000  0.66666667  1
  Li  Li48  1  0.50000000  0.12500000  0.00000000  1
  Li  Li49  1  0.50000000  0.12500000  0.33333333  1
  Li  Li50  1  0.50000000  0.12500000  0.66666667  1
  Li  Li51  1  0.50000000  0.37500000  0.00000000  1
  Li  Li52  1  0.50000000  0.37500000  0.33333333  1
  Li  Li53  1  0.50000000  0.37500000  0.66666667  1
  Li  Li54  1  0.50000000  0.62500000  0.00000000  1
  Li  Li55  1  0.50000000  0.62500000  0.33333333  1
  Li  Li56  1  0.50000000  0.62500000  0.66666667  1
  Li  Li57  1  0.50000000  0.87500000  0.00000000  1
  Li  Li58  1  0.50000000  0.87500000  0.33333333  1
  Li  Li59  1  0.50000000  0.87500000  0.66666667  1
  Li  Li60  1  0.83333333  0.12500000  0.00000000  1
  Li  Li61  1  0.83333333  0.12500000  0.33333333  1
  Li  Li62  1  0.83333333  0.12500000  0.66666667  1
  Li  Li63  1  0.83333333  0.37500000  0.00000000  1
  Li  Li64  1  0.83333333  0.37500000  0.33333333  1
  Li  Li65  1  0.83333333  0.37500000  0.66666667  1
  Li  Li66  1  0.83333333  0.62500000  0.00000000  1
  Li  Li67  1  0.83333333  0.62500000  0.33333333  1
  Li  Li68  1  0.83333333  0.62500000  0.66666667  1
  Li  Li69  1  0.83333333  0.87500000  0.00000000  1
  Li  Li70  1  0.83333333  0.87500000  0.33333333  1
  Li  Li71  1  0.83333333  0.87500000  0.66666667  1
  Ag  Ag72  1  0.00000000  0.00000000  0.00000000  1
  Ag  Ag73  1  -0.00000000  0.00000000  0.33333333  1
  Ag  Ag74  1  -0.00000000  0.00000000  0.66666667  1
  Ag  Ag75  1  0.00000000  0.25000000  0.00000000  1
  Ag  Ag76  1  -0.00000000  0.25000000  0.33333333  1
  Ag  Ag77  1  -0.00000000  0.25000000  0.66666667  1
  Ag  Ag78  1  0.00000000  0.50000000  0.00000000  1
  Ag  Ag79  1  -0.00000000  0.50000000  0.33333333  1
  Ag  Ag80  1  -0.00000000  0.50000000  0.66666667  1
  Ag  Ag81  1  0.00000000  0.75000000  0.00000000  1
  Ag  Ag82  1  -0.00000000  0.75000000  0.33333333  1
  Ag  Ag83  1  -0.00000000  0.75000000  0.66666667  1
  Ag  Ag84  1  0.33333333  0.00000000  0.00000000  1
  Ag  Ag85  1  0.33333333  0.00000000  0.33333333  1
  Ag  Ag86  1  0.33333333  0.00000000  0.66666667  1
  Ag  Ag87  1  0.33333333  0.25000000  0.00000000  1
  Ag  Ag88  1  0.33333333  0.25000000  0.33333333  1
  Ag  Ag89  1  0.33333333  0.25000000  0.66666667  1
  Ag  Ag90  1  0.33333333  0.50000000  0.00000000  1
  Ag  Ag91  1  0.33333333  0.50000000  0.33333333  1
  Ag  Ag92  1  0.33333333  0.50000000  0.66666667  1
  Ag  Ag93  1  0.33333333  0.75000000  0.00000000  1
  Ag  Ag94  1  0.33333333  0.75000000  0.33333333  1
  Ag  Ag95  1  0.33333333  0.75000000  0.66666667  1
  Ag  Ag96  1  0.66666667  0.00000000  0.00000000  1
  Ag  Ag97  1  0.66666667  0.00000000  0.33333333  1
  Ag  Ag98  1  0.66666667  0.00000000  0.66666667  1
  Ag  Ag99  1  0.66666667  0.25000000  0.00000000  1
  Ag  Ag100  1  0.66666667  0.25000000  0.33333333  1
  Ag  Ag101  1  0.66666667  0.25000000  0.66666667  1
  Ag  Ag102  1  0.66666667  0.50000000  0.00000000  1
  Ag  Ag103  1  0.66666667  0.50000000  0.33333333  1
  Ag  Ag104  1  0.66666667  0.50000000  0.66666667  1
  Ag  Ag105  1  0.66666667  0.75000000  0.00000000  1
  Ag  Ag106  1  0.66666667  0.75000000  0.33333333  1
  Ag  Ag107  1  0.66666667  0.75000000  0.66666667  1
  Ag  Ag108  1  0.00000000  0.12500000  0.16666667  1
  Ag  Ag109  1  0.00000000  0.12500000  0.50000000  1
  Ag  Ag110  1  -0.00000000  0.12500000  0.83333333  1
  Ag  Ag111  1  0.00000000  0.37500000  0.16666667  1
  Ag  Ag112  1  0.00000000  0.37500000  0.50000000  1
  Ag  Ag113  1  -0.00000000  0.37500000  0.83333333  1
  Ag  Ag114  1  0.00000000  0.62500000  0.16666667  1
  Ag  Ag115  1  0.00000000  0.62500000  0.50000000  1
  Ag  Ag116  1  -0.00000000  0.62500000  0.83333333  1
  Ag  Ag117  1  0.00000000  0.87500000  0.16666667  1
  Ag  Ag118  1  0.00000000  0.87500000  0.50000000  1
  Ag  Ag119  1  -0.00000000  0.87500000  0.83333333  1
  Ag  Ag120  1  0.33333333  0.12500000  0.16666667  1
  Ag  Ag121  1  0.33333333  0.12500000  0.50000000  1
  Ag  Ag122  1  0.33333333  0.12500000  0.83333333  1
  Ag  Ag123  1  0.33333333  0.37500000  0.16666667  1
  Ag  Ag124  1  0.33333333  0.37500000  0.50000000  1
  Ag  Ag125  1  0.33333333  0.37500000  0.83333333  1
  Ag  Ag126  1  0.33333333  0.62500000  0.16666667  1
  Ag  Ag127  1  0.33333333  0.62500000  0.50000000  1
  Ag  Ag128  1  0.33333333  0.62500000  0.83333333  1
  Ag  Ag129  1  0.33333333  0.87500000  0.16666667  1
  Ag  Ag130  1  0.33333333  0.87500000  0.50000000  1
  Ag  Ag131  1  0.33333333  0.87500000  0.83333333  1
  Ag  Ag132  1  0.66666667  0.12500000  0.16666667  1
  Ag  Ag133  1  0.66666667  0.12500000  0.50000000  1
  Ag  Ag134  1  0.66666667  0.12500000  0.83333333  1
  Ag  Ag135  1  0.66666667  0.37500000  0.16666667  1
  Ag  Ag136  1  0.66666667  0.37500000  0.50000000  1
  Ag  Ag137  1  0.66666667  0.37500000  0.83333333  1
  Ag  Ag138  1  0.66666667  0.62500000  0.16666667  1
  Ag  Ag139  1  0.66666667  0.62500000  0.50000000  1
  Ag  Ag140  1  0.66666667  0.62500000  0.83333333  1
  Ag  Ag141  1  0.66666667  0.87500000  0.16666667  1
  Ag  Ag142  1  0.66666667  0.87500000  0.50000000  1
  Ag  Ag143  1  0.66666667  0.87500000  0.83333333  1
  O  O144  1  0.08172585  0.07950574  0.08397254  1
  O  O145  1  0.08172585  0.07950574  0.41730587  1
  O  O146  1  0.08172585  0.07950574  0.75063920  1
  O  O147  1  0.08172585  0.32950574  0.08397254  1
  O  O148  1  0.08172585  0.32950574  0.41730587  1
  O  O149  1  0.08172585  0.32950574  0.75063920  1
  O  O150  1  0.08172585  0.57950574  0.08397254  1
  O  O151  1  0.08172585  0.57950574  0.41730587  1
  O  O152  1  0.08172585  0.57950574  0.75063920  1
  O  O153  1  0.08172585  0.82950574  0.08397254  1
  O  O154  1  0.08172585  0.82950574  0.41730587  1
  O  O155  1  0.08172585  0.82950574  0.75063920  1
  O  O156  1  0.41505918  0.07950574  0.08397254  1
  O  O157  1  0.41505918  0.07950574  0.41730587  1
  O  O158  1  0.41505918  0.07950574  0.75063920  1
  O  O159  1  0.41505918  0.32950574  0.08397254  1
  O  O160  1  0.41505918  0.32950574  0.41730587  1
  O  O161  1  0.41505918  0.32950574  0.75063920  1
  O  O162  1  0.41505918  0.57950574  0.08397254  1
  O  O163  1  0.41505918  0.57950574  0.41730587  1
  O  O164  1  0.41505918  0.57950574  0.75063920  1
  O  O165  1  0.41505918  0.82950574  0.08397254  1
  O  O166  1  0.41505918  0.82950574  0.41730587  1
  O  O167  1  0.41505918  0.82950574  0.75063920  1
  O  O168  1  0.74839251  0.07950574  0.08397254  1
  O  O169  1  0.74839251  0.07950574  0.41730587  1
  O  O170  1  0.74839251  0.07950574  0.75063920  1
  O  O171  1  0.74839251  0.32950574  0.08397254  1
  O  O172  1  0.74839251  0.32950574  0.41730587  1
  O  O173  1  0.74839251  0.32950574  0.75063920  1
  O  O174  1  0.74839251  0.57950574  0.08397254  1
  O  O175  1  0.74839251  0.57950574  0.41730587  1
  O  O176  1  0.74839251  0.57950574  0.75063920  1
  O  O177  1  0.74839251  0.82950574  0.08397254  1
  O  O178  1  0.74839251  0.82950574  0.41730587  1
  O  O179  1  0.74839251  0.82950574  0.75063920  1
  O  O180  1  0.25160749  0.17049426  0.24936080  1
  O  O181  1  0.25160749  0.17049426  0.58269413  1
  O  O182  1  0.25160749  0.17049426  0.91602746  1
  O  O183  1  0.25160749  0.42049426  0.24936080  1
  O  O184  1  0.25160749  0.42049426  0.58269413  1
  O  O185  1  0.25160749  0.42049426  0.91602746  1
  O  O186  1  0.25160749  0.67049426  0.24936080  1
  O  O187  1  0.25160749  0.67049426  0.58269413  1
  O  O188  1  0.25160749  0.67049426  0.91602746  1
  O  O189  1  0.25160749  0.92049426  0.24936080  1
  O  O190  1  0.25160749  0.92049426  0.58269413  1
  O  O191  1  0.25160749  0.92049426  0.91602746  1
  O  O192  1  0.58494082  0.17049426  0.24936080  1
  O  O193  1  0.58494082  0.17049426  0.58269413  1
  O  O194  1  0.58494082  0.17049426  0.91602746  1
  O  O195  1  0.58494082  0.42049426  0.24936080  1
  O  O196  1  0.58494082  0.42049426  0.58269413  1
  O  O197  1  0.58494082  0.42049426  0.91602746  1
  O  O198  1  0.58494082  0.67049426  0.24936080  1
  O  O199  1  0.58494082  0.67049426  0.58269413  1
  O  O200  1  0.58494082  0.67049426  0.91602746  1
  O  O201  1  0.58494082  0.92049426  0.24936080  1
  O  O202  1  0.58494082  0.92049426  0.58269413  1
  O  O203  1  0.58494082  0.92049426  0.91602746  1
  O  O204  1  0.91827415  0.17049426  0.24936080  1
  O  O205  1  0.91827415  0.17049426  0.58269413  1
  O  O206  1  0.91827415  0.17049426  0.91602746  1
  O  O207  1  0.91827415  0.42049426  0.24936080  1
  O  O208  1  0.91827415  0.42049426  0.58269413  1
  O  O209  1  0.91827415  0.42049426  0.91602746  1
  O  O210  1  0.91827415  0.67049426  0.24936080  1
  O  O211  1  0.91827415  0.67049426  0.58269413  1
  O  O212  1  0.91827415  0.67049426  0.91602746  1
  O  O213  1  0.91827415  0.92049426  0.24936080  1
  O  O214  1  0.91827415  0.92049426  0.58269413  1
  O  O215  1  0.91827415  0.92049426  0.91602746  1
  O  O216  1  0.08172585  0.04549426  0.25063920  1
  O  O217  1  0.08172585  0.04549426  0.58397254  1
  O  O218  1  0.08172585  0.04549426  0.91730587  1
  O  O219  1  0.08172585  0.29549426  0.25063920  1
  O  O220  1  0.08172585  0.29549426  0.58397254  1
  O  O221  1  0.08172585  0.29549426  0.91730587  1
  O  O222  1  0.08172585  0.54549426  0.25063920  1
  O  O223  1  0.08172585  0.54549426  0.58397254  1
  O  O224  1  0.08172585  0.54549426  0.91730587  1
  O  O225  1  0.08172585  0.79549426  0.25063920  1
  O  O226  1  0.08172585  0.79549426  0.58397254  1
  O  O227  1  0.08172585  0.79549426  0.91730587  1
  O  O228  1  0.41505918  0.04549426  0.25063920  1
  O  O229  1  0.41505918  0.04549426  0.58397254  1
  O  O230  1  0.41505918  0.04549426  0.91730587  1
  O  O231  1  0.41505918  0.29549426  0.25063920  1
  O  O232  1  0.41505918  0.29549426  0.58397254  1
  O  O233  1  0.41505918  0.29549426  0.91730587  1
  O  O234  1  0.41505918  0.54549426  0.25063920  1
  O  O235  1  0.41505918  0.54549426  0.58397254  1
  O  O236  1  0.41505918  0.54549426  0.91730587  1
  O  O237  1  0.41505918  0.79549426  0.25063920  1
  O  O238  1  0.41505918  0.79549426  0.58397254  1
  O  O239  1  0.41505918  0.79549426  0.91730587  1
  O  O240  1  0.74839251  0.04549426  0.25063920  1
  O  O241  1  0.74839251  0.04549426  0.58397254  1
  O  O242  1  0.74839251  0.04549426  0.91730587  1
  O  O243  1  0.74839251  0.29549426  0.25063920  1
  O  O244  1  0.74839251  0.29549426  0.58397254  1
  O  O245  1  0.74839251  0.29549426  0.91730587  1
  O  O246  1  0.74839251  0.54549426  0.25063920  1
  O  O247  1  0.74839251  0.54549426  0.58397254  1
  O  O248  1  0.74839251  0.54549426  0.91730587  1
  O  O249  1  0.74839251  0.79549426  0.25063920  1
  O  O250  1  0.74839251  0.79549426  0.58397254  1
  O  O251  1  0.74839251  0.79549426  0.91730587  1
  O  O252  1  0.25160749  0.20450574  0.08269413  1
  O  O253  1  0.25160749  0.20450574  0.41602746  1
  O  O254  1  0.25160749  0.20450574  0.74936080  1
  O  O255  1  0.25160749  0.45450574  0.08269413  1
  O  O256  1  0.25160749  0.45450574  0.41602746  1
  O  O257  1  0.25160749  0.45450574  0.74936080  1
  O  O258  1  0.25160749  0.70450574  0.08269413  1
  O  O259  1  0.25160749  0.70450574  0.41602746  1
  O  O260  1  0.25160749  0.70450574  0.74936080  1
  O  O261  1  0.25160749  0.95450574  0.08269413  1
  O  O262  1  0.25160749  0.95450574  0.41602746  1
  O  O263  1  0.25160749  0.95450574  0.74936080  1
  O  O264  1  0.58494082  0.20450574  0.08269413  1
  O  O265  1  0.58494082  0.20450574  0.41602746  1
  O  O266  1  0.58494082  0.20450574  0.74936080  1
  O  O267  1  0.58494082  0.45450574  0.08269413  1
  O  O268  1  0.58494082  0.45450574  0.41602746  1
  O  O269  1  0.58494082  0.45450574  0.74936080  1
  O  O270  1  0.58494082  0.70450574  0.08269413  1
  O  O271  1  0.58494082  0.70450574  0.41602746  1
  O  O272  1  0.58494082  0.70450574  0.74936080  1
  O  O273  1  0.58494082  0.95450574  0.08269413  1
  O  O274  1  0.58494082  0.95450574  0.41602746  1
  O  O275  1  0.58494082  0.95450574  0.74936080  1
  O  O276  1  0.91827415  0.20450574  0.08269413  1
  O  O277  1  0.91827415  0.20450574  0.41602746  1
  O  O278  1  0.91827415  0.20450574  0.74936080  1
  O  O279  1  0.91827415  0.45450574  0.08269413  1
  O  O280  1  0.91827415  0.45450574  0.41602746  1
  O  O281  1  0.91827415  0.45450574  0.74936080  1
  O  O282  1  0.91827415  0.70450574  0.08269413  1
  O  O283  1  0.91827415  0.70450574  0.41602746  1
  O  O284  1  0.91827415  0.70450574  0.74936080  1
  O  O285  1  0.91827415  0.95450574  0.08269413  1
  O  O286  1  0.91827415  0.95450574  0.41602746  1
  O  O287  1  0.91827415  0.95450574  0.74936080  1
