# generated using pymatgen
data_KNa2CuO2
_symmetry_space_group_name_H-M   'P 1'
_cell_length_a   12.21009208
_cell_length_b   12.21009208
_cell_length_c   10.57257555
_cell_angle_alpha   90.00000000
_cell_angle_beta   90.00000000
_cell_angle_gamma   90.00000000
_symmetry_Int_Tables_number   1
_chemical_formula_structural   KNa2CuO2
_chemical_formula_sum   'K16 Na32 Cu16 O32'
_cell_volume   1576.22668386
_cell_formula_units_Z   16
loop_
 _symmetry_equiv_pos_site_id
 _symmetry_equiv_pos_as_xyz
  1  'x, y, z'
loop_
 _atom_site_type_symbol
 _atom_site_label
 _atom_site_symmetry_multiplicity
 _atom_site_fract_x
 _atom_site_fract_y
 _atom_site_fract_z
 _atom_site_occupancy
  K  K0  1  0.75000000  0.75000000  0.56454672  1
  K  K1  1  0.25000000  0.75000000  0.56454672  1
  K  K2  1  0.50000000  0.50000000  0.56454672  1
  K  K3  1  0.75000000  0.25000000  0.56454672  1
  K  K4  1  0.00000000  0.50000000  0.56454672  1
  K  K5  1  0.25000000  0.25000000  0.56454672  1
  K  K6  1  0.50000000  0.00000000  0.56454672  1
  K  K7  1  -0.00000000  0.00000000  0.56454672  1
  K  K8  1  0.75000000  0.50000000  1.06454672  1
  K  K9  1  0.25000000  0.50000000  1.06454672  1
  K  K10  1  0.50000000  0.25000000  1.06454672  1
  K  K11  1  0.75000000  0.00000000  1.06454672  1
  K  K12  1  0.00000000  0.25000000  1.06454672  1
  K  K13  1  0.25000000  0.00000000  1.06454672  1
  K  K14  1  0.50000000  -0.25000000  1.06454672  1
  K  K15  1  -0.00000000  -0.25000000  1.06454672  1
  Na  Na16  1  0.87500000  0.62500000  0.27167820  1
  Na  Na17  1  0.37500000  0.62500000  0.27167820  1
  Na  Na18  1  0.62500000  0.37500000  0.27167820  1
  Na  Na19  1  0.87500000  0.12500000  0.27167820  1
  Na  Na20  1  0.12500000  0.37500000  0.27167820  1
  Na  Na21  1  0.37500000  0.12500000  0.27167820  1
  Na  Na22  1  0.62500000  -0.12500000  0.27167820  1
  Na  Na23  1  0.12500000  -0.12500000  0.27167820  1
  Na  Na24  1  0.87500000  0.37500000  0.77167820  1
  Na  Na25  1  0.37500000  0.37500000  0.77167820  1
  Na  Na26  1  0.62500000  0.12500000  0.77167820  1
  Na  Na27  1  0.87500000  -0.12500000  0.77167820  1
  Na  Na28  1  0.12500000  0.12500000  0.77167820  1
  Na  Na29  1  0.37500000  -0.12500000  0.77167820  1
  Na  Na30  1  0.62500000  -0.37500000  0.77167820  1
  Na  Na31  1  0.12500000  -0.37500000  0.77167820  1
  Na  Na32  1  0.62500000  0.62500000  0.27167820  1
  Na  Na33  1  0.12500000  0.62500000  0.27167820  1
  Na  Na34  1  0.37500000  0.37500000  0.27167820  1
  Na  Na35  1  0.62500000  0.12500000  0.27167820  1
  Na  Na36  1  -0.12500000  0.37500000  0.27167820  1
  Na  Na37  1  0.12500000  0.12500000  0.27167820  1
  Na  Na38  1  0.37500000  -0.12500000  0.27167820  1
  Na  Na39  1  -0.12500000  -0.12500000  0.27167820  1
  Na  Na40  1  0.62500000  0.37500000  0.77167820  1
  Na  Na41  1  0.12500000  0.37500000  0.77167820  1
  Na  Na42  1  0.37500000  0.12500000  0.77167820  1
  Na  Na43  1  0.62500000  -0.12500000  0.77167820  1
  Na  Na44  1  -0.12500000  0.12500000  0.77167820  1
  Na  Na45  1  0.12500000  -0.12500000  0.77167820  1
  Na  Na46  1  0.37500000  -0.37500000  0.77167820  1
  Na  Na47  1  -0.12500000  -0.37500000  0.77167820  1
  Cu  Cu48  1  0.75000000  0.75000000  0.99871562  1
  Cu  Cu49  1  0.25000000  0.75000000  0.99871562  1
  Cu  Cu50  1  0.50000000  0.50000000  0.99871562  1
  Cu  Cu51  1  0.75000000  0.25000000  0.99871562  1
  Cu  Cu52  1  0.00000000  0.50000000  0.99871562  1
  Cu  Cu53  1  0.25000000  0.25000000  0.99871562  1
  Cu  Cu54  1  0.50000000  0.00000000  0.99871562  1
  Cu  Cu55  1  0.00000000  -0.00000000  0.99871562  1
  Cu  Cu56  1  0.75000000  0.50000000  1.49871562  1
  Cu  Cu57  1  0.25000000  0.50000000  1.49871562  1
  Cu  Cu58  1  0.50000000  0.25000000  1.49871562  1
  Cu  Cu59  1  0.75000000  0.00000000  1.49871562  1
  Cu  Cu60  1  0.00000000  0.25000000  1.49871562  1
  Cu  Cu61  1  0.25000000  0.00000000  1.49871562  1
  Cu  Cu62  1  0.50000000  -0.25000000  1.49871562  1
  Cu  Cu63  1  -0.00000000  -0.25000000  1.49871562  1
  O  O64  1  0.75000000  0.75000000  0.16720955  1
  O  O65  1  0.25000000  0.75000000  0.16720955  1
  O  O66  1  0.50000000  0.50000000  0.16720955  1
  O  O67  1  0.75000000  0.25000000  0.16720955  1
  O  O68  1  0.00000000  0.50000000  0.16720955  1
  O  O69  1  0.25000000  0.25000000  0.16720955  1
  O  O70  1  0.50000000  0.00000000  0.16720955  1
  O  O71  1  -0.00000000  -0.00000000  0.16720955  1
  O  O72  1  0.75000000  0.50000000  0.66720955  1
  O  O73  1  0.25000000  0.50000000  0.66720955  1
  O  O74  1  0.50000000  0.25000000  0.66720955  1
  O  O75  1  0.75000000  0.00000000  0.66720955  1
  O  O76  1  0.00000000  0.25000000  0.66720955  1
  O  O77  1  0.25000000  0.00000000  0.66720955  1
  O  O78  1  0.50000000  -0.25000000  0.66720955  1
  O  O79  1  -0.00000000  -0.25000000  0.66720955  1
  O  O80  1  0.75000000  0.75000000  0.83111071  1
  O  O81  1  0.25000000  0.75000000  0.83111071  1
  O  O82  1  0.50000000  0.50000000  0.83111071  1
  O  O83  1  0.75000000  0.25000000  0.83111071  1
  O  O84  1  0.00000000  0.50000000  0.83111071  1
  O  O85  1  0.25000000  0.25000000  0.83111071  1
  O  O86  1  0.50000000  0.00000000  0.83111071  1
  O  O87  1  0.00000000  -0.00000000  0.83111071  1
  O  O88  1  0.75000000  0.50000000  1.33111071  1
  O  O89  1  0.25000000  0.50000000  1.33111071  1
  O  O90  1  0.50000000  0.25000000  1.33111071  1
  O  O91  1  0.75000000  0.00000000  1.33111071  1
  O  O92  1  0.00000000  0.25000000  1.33111071  1
  O  O93  1  0.25000000  0.00000000  1.33111071  1
  O  O94  1  0.50000000  -0.25000000  1.33111071  1
  O  O95  1  -0.00000000  -0.25000000  1.33111071  1
