# generated using pymatgen
data_Sr2LiReO6
_symmetry_space_group_name_H-M   'P 1'
_cell_length_a   15.58858758
_cell_length_b   15.58858758
_cell_length_c   15.95195901
_cell_angle_alpha   90.00000000
_cell_angle_beta   90.00000000
_cell_angle_gamma   90.00000000
_symmetry_Int_Tables_number   1
_chemical_formula_structural   Sr2LiReO6
_chemical_formula_sum   'Sr64 Li32 Re32 O192'
_cell_volume   3876.39084932
_cell_formula_units_Z   32
loop_
 _symmetry_equiv_pos_site_id
 _symmetry_equiv_pos_as_xyz
  1  'x, y, z'
loop_
 _atom_site_type_symbol
 _atom_site_label
 _atom_site_symmetry_multiplicity
 _atom_site_fract_x
 _atom_site_fract_y
 _atom_site_fract_z
 _atom_site_occupancy
  Sr  Sr0  1  0.62500000  0.62500000  0.12500000  1
  Sr  Sr1  1  0.62500000  0.62500000  0.62500000  1
  Sr  Sr2  1  0.12500000  0.62500000  0.12500000  1
  Sr  Sr3  1  0.12500000  0.62500000  0.62500000  1
  Sr  Sr4  1  0.37500000  0.37500000  0.12500000  1
  Sr  Sr5  1  0.37500000  0.37500000  0.62500000  1
  Sr  Sr6  1  0.62500000  0.12500000  0.12500000  1
  Sr  Sr7  1  0.62500000  0.12500000  0.62500000  1
  Sr  Sr8  1  -0.12500000  0.37500000  0.12500000  1
  Sr  Sr9  1  -0.12500000  0.37500000  0.62500000  1
  Sr  Sr10  1  0.12500000  0.12500000  0.12500000  1
  Sr  Sr11  1  0.12500000  0.12500000  0.62500000  1
  Sr  Sr12  1  0.37500000  -0.12500000  0.12500000  1
  Sr  Sr13  1  0.37500000  -0.12500000  0.62500000  1
  Sr  Sr14  1  -0.12500000  -0.12500000  0.12500000  1
  Sr  Sr15  1  -0.12500000  -0.12500000  0.62500000  1
  Sr  Sr16  1  0.62500000  0.37500000  0.37500000  1
  Sr  Sr17  1  0.62500000  0.37500000  0.87500000  1
  Sr  Sr18  1  0.12500000  0.37500000  0.37500000  1
  Sr  Sr19  1  0.12500000  0.37500000  0.87500000  1
  Sr  Sr20  1  0.37500000  0.12500000  0.37500000  1
  Sr  Sr21  1  0.37500000  0.12500000  0.87500000  1
  Sr  Sr22  1  0.62500000  -0.12500000  0.37500000  1
  Sr  Sr23  1  0.62500000  -0.12500000  0.87500000  1
  Sr  Sr24  1  -0.12500000  0.12500000  0.37500000  1
  Sr  Sr25  1  -0.12500000  0.12500000  0.87500000  1
  Sr  Sr26  1  0.12500000  -0.12500000  0.37500000  1
  Sr  Sr27  1  0.12500000  -0.12500000  0.87500000  1
  Sr  Sr28  1  0.37500000  -0.37500000  0.37500000  1
  Sr  Sr29  1  0.37500000  -0.37500000  0.87500000  1
  Sr  Sr30  1  -0.12500000  -0.37500000  0.37500000  1
  Sr  Sr31  1  -0.12500000  -0.37500000  0.87500000  1
  Sr  Sr32  1  0.87500000  0.62500000  0.12500000  1
  Sr  Sr33  1  0.87500000  0.62500000  0.62500000  1
  Sr  Sr34  1  0.37500000  0.62500000  0.12500000  1
  Sr  Sr35  1  0.37500000  0.62500000  0.62500000  1
  Sr  Sr36  1  0.62500000  0.37500000  0.12500000  1
  Sr  Sr37  1  0.62500000  0.37500000  0.62500000  1
  Sr  Sr38  1  0.87500000  0.12500000  0.12500000  1
  Sr  Sr39  1  0.87500000  0.12500000  0.62500000  1
  Sr  Sr40  1  0.12500000  0.37500000  0.12500000  1
  Sr  Sr41  1  0.12500000  0.37500000  0.62500000  1
  Sr  Sr42  1  0.37500000  0.12500000  0.12500000  1
  Sr  Sr43  1  0.37500000  0.12500000  0.62500000  1
  Sr  Sr44  1  0.62500000  -0.12500000  0.12500000  1
  Sr  Sr45  1  0.62500000  -0.12500000  0.62500000  1
  Sr  Sr46  1  0.12500000  -0.12500000  0.12500000  1
  Sr  Sr47  1  0.12500000  -0.12500000  0.62500000  1
  Sr  Sr48  1  0.87500000  0.37500000  0.37500000  1
  Sr  Sr49  1  0.87500000  0.37500000  0.87500000  1
  Sr  Sr50  1  0.37500000  0.37500000  0.37500000  1
  Sr  Sr51  1  0.37500000  0.37500000  0.87500000  1
  Sr  Sr52  1  0.62500000  0.12500000  0.37500000  1
  Sr  Sr53  1  0.62500000  0.12500000  0.87500000  1
  Sr  Sr54  1  0.87500000  -0.12500000  0.37500000  1
  Sr  Sr55  1  0.87500000  -0.12500000  0.87500000  1
  Sr  Sr56  1  0.12500000  0.12500000  0.37500000  1
  Sr  Sr57  1  0.12500000  0.12500000  0.87500000  1
  Sr  Sr58  1  0.37500000  -0.12500000  0.37500000  1
  Sr  Sr59  1  0.37500000  -0.12500000  0.87500000  1
  Sr  Sr60  1  0.62500000  -0.37500000  0.37500000  1
  Sr  Sr61  1  0.62500000  -0.37500000  0.87500000  1
  Sr  Sr62  1  0.12500000  -0.37500000  0.37500000  1
  Sr  Sr63  1  0.12500000  -0.37500000  0.87500000  1
  Li  Li64  1  0.75000000  0.75000000  0.25000000  1
  Li  Li65  1  0.75000000  0.75000000  0.75000000  1
  Li  Li66  1  0.25000000  0.75000000  0.25000000  1
  Li  Li67  1  0.25000000  0.75000000  0.75000000  1
  Li  Li68  1  0.50000000  0.50000000  0.25000000  1
  Li  Li69  1  0.50000000  0.50000000  0.75000000  1
  Li  Li70  1  0.75000000  0.25000000  0.25000000  1
  Li  Li71  1  0.75000000  0.25000000  0.75000000  1
  Li  Li72  1  -0.00000000  0.50000000  0.25000000  1
  Li  Li73  1  -0.00000000  0.50000000  0.75000000  1
  Li  Li74  1  0.25000000  0.25000000  0.25000000  1
  Li  Li75  1  0.25000000  0.25000000  0.75000000  1
  Li  Li76  1  0.50000000  -0.00000000  0.25000000  1
  Li  Li77  1  0.50000000  -0.00000000  0.75000000  1
  Li  Li78  1  0.00000000  -0.00000000  0.25000000  1
  Li  Li79  1  0.00000000  -0.00000000  0.75000000  1
  Li  Li80  1  0.75000000  0.50000000  0.50000000  1
  Li  Li81  1  0.75000000  0.50000000  1.00000000  1
  Li  Li82  1  0.25000000  0.50000000  0.50000000  1
  Li  Li83  1  0.25000000  0.50000000  1.00000000  1
  Li  Li84  1  0.50000000  0.25000000  0.50000000  1
  Li  Li85  1  0.50000000  0.25000000  1.00000000  1
  Li  Li86  1  0.75000000  -0.00000000  0.50000000  1
  Li  Li87  1  0.75000000  -0.00000000  1.00000000  1
  Li  Li88  1  -0.00000000  0.25000000  0.50000000  1
  Li  Li89  1  -0.00000000  0.25000000  1.00000000  1
  Li  Li90  1  0.25000000  -0.00000000  0.50000000  1
  Li  Li91  1  0.25000000  -0.00000000  1.00000000  1
  Li  Li92  1  0.50000000  -0.25000000  0.50000000  1
  Li  Li93  1  0.50000000  -0.25000000  1.00000000  1
  Li  Li94  1  0.00000000  -0.25000000  0.50000000  1
  Li  Li95  1  0.00000000  -0.25000000  1.00000000  1
  Re  Re96  1  0.75000000  0.75000000  -0.00000000  1
  Re  Re97  1  0.75000000  0.75000000  0.50000000  1
  Re  Re98  1  0.25000000  0.75000000  -0.00000000  1
  Re  Re99  1  0.25000000  0.75000000  0.50000000  1
  Re  Re100  1  0.50000000  0.50000000  -0.00000000  1
  Re  Re101  1  0.50000000  0.50000000  0.50000000  1
  Re  Re102  1  0.75000000  0.25000000  -0.00000000  1
  Re  Re103  1  0.75000000  0.25000000  0.50000000  1
  Re  Re104  1  -0.00000000  0.50000000  -0.00000000  1
  Re  Re105  1  -0.00000000  0.50000000  0.50000000  1
  Re  Re106  1  0.25000000  0.25000000  -0.00000000  1
  Re  Re107  1  0.25000000  0.25000000  0.50000000  1
  Re  Re108  1  0.50000000  -0.00000000  -0.00000000  1
  Re  Re109  1  0.50000000  -0.00000000  0.50000000  1
  Re  Re110  1  0.00000000  -0.00000000  -0.00000000  1
  Re  Re111  1  0.00000000  -0.00000000  0.50000000  1
  Re  Re112  1  0.75000000  0.50000000  0.25000000  1
  Re  Re113  1  0.75000000  0.50000000  0.75000000  1
  Re  Re114  1  0.25000000  0.50000000  0.25000000  1
  Re  Re115  1  0.25000000  0.50000000  0.75000000  1
  Re  Re116  1  0.50000000  0.25000000  0.25000000  1
  Re  Re117  1  0.50000000  0.25000000  0.75000000  1
  Re  Re118  1  0.75000000  -0.00000000  0.25000000  1
  Re  Re119  1  0.75000000  -0.00000000  0.75000000  1
  Re  Re120  1  -0.00000000  0.25000000  0.25000000  1
  Re  Re121  1  -0.00000000  0.25000000  0.75000000  1
  Re  Re122  1  0.25000000  -0.00000000  0.25000000  1
  Re  Re123  1  0.25000000  -0.00000000  0.75000000  1
  Re  Re124  1  0.50000000  -0.25000000  0.25000000  1
  Re  Re125  1  0.50000000  -0.25000000  0.75000000  1
  Re  Re126  1  0.00000000  -0.25000000  0.25000000  1
  Re  Re127  1  0.00000000  -0.25000000  0.75000000  1
  O  O128  1  0.72772569  0.61884563  0.25000000  1
  O  O129  1  0.72772569  0.61884563  0.75000000  1
  O  O130  1  0.22772569  0.61884563  0.25000000  1
  O  O131  1  0.22772569  0.61884563  0.75000000  1
  O  O132  1  0.47772569  0.36884563  0.25000000  1
  O  O133  1  0.47772569  0.36884563  0.75000000  1
  O  O134  1  0.72772569  0.11884563  0.25000000  1
  O  O135  1  0.72772569  0.11884563  0.75000000  1
  O  O136  1  -0.02227431  0.36884563  0.25000000  1
  O  O137  1  -0.02227431  0.36884563  0.75000000  1
  O  O138  1  0.22772569  0.11884563  0.25000000  1
  O  O139  1  0.22772569  0.11884563  0.75000000  1
  O  O140  1  0.47772569  -0.13115437  0.25000000  1
  O  O141  1  0.47772569  -0.13115437  0.75000000  1
  O  O142  1  -0.02227431  -0.13115437  0.25000000  1
  O  O143  1  -0.02227431  -0.13115437  0.75000000  1
  O  O144  1  0.72772569  0.36884563  0.50000000  1
  O  O145  1  0.72772569  0.36884563  1.00000000  1
  O  O146  1  0.22772569  0.36884563  0.50000000  1
  O  O147  1  0.22772569  0.36884563  1.00000000  1
  O  O148  1  0.47772569  0.11884563  0.50000000  1
  O  O149  1  0.47772569  0.11884563  1.00000000  1
  O  O150  1  0.72772569  -0.13115437  0.50000000  1
  O  O151  1  0.72772569  -0.13115437  1.00000000  1
  O  O152  1  -0.02227431  0.11884563  0.50000000  1
  O  O153  1  -0.02227431  0.11884563  1.00000000  1
  O  O154  1  0.22772569  -0.13115437  0.50000000  1
  O  O155  1  0.22772569  -0.13115437  1.00000000  1
  O  O156  1  0.47772569  -0.38115437  0.50000000  1
  O  O157  1  0.47772569  -0.38115437  1.00000000  1
  O  O158  1  -0.02227431  -0.38115437  0.50000000  1
  O  O159  1  -0.02227431  -0.38115437  1.00000000  1
  O  O160  1  0.77227431  0.63115437  0.00000000  1
  O  O161  1  0.77227431  0.63115437  0.50000000  1
  O  O162  1  0.27227431  0.63115437  0.00000000  1
  O  O163  1  0.27227431  0.63115437  0.50000000  1
  O  O164  1  0.52227431  0.38115437  0.00000000  1
  O  O165  1  0.52227431  0.38115437  0.50000000  1
  O  O166  1  0.77227431  0.13115437  0.00000000  1
  O  O167  1  0.77227431  0.13115437  0.50000000  1
  O  O168  1  0.02227431  0.38115437  0.00000000  1
  O  O169  1  0.02227431  0.38115437  0.50000000  1
  O  O170  1  0.27227431  0.13115437  0.00000000  1
  O  O171  1  0.27227431  0.13115437  0.50000000  1
  O  O172  1  0.52227431  -0.11884563  0.00000000  1
  O  O173  1  0.52227431  -0.11884563  0.50000000  1
  O  O174  1  0.02227431  -0.11884563  0.00000000  1
  O  O175  1  0.02227431  -0.11884563  0.50000000  1
  O  O176  1  0.77227431  0.38115437  0.25000000  1
  O  O177  1  0.77227431  0.38115437  0.75000000  1
  O  O178  1  0.27227431  0.38115437  0.25000000  1
  O  O179  1  0.27227431  0.38115437  0.75000000  1
  O  O180  1  0.52227431  0.13115437  0.25000000  1
  O  O181  1  0.52227431  0.13115437  0.75000000  1
  O  O182  1  0.77227431  -0.11884563  0.25000000  1
  O  O183  1  0.77227431  -0.11884563  0.75000000  1
  O  O184  1  0.02227431  0.13115437  0.25000000  1
  O  O185  1  0.02227431  0.13115437  0.75000000  1
  O  O186  1  0.27227431  -0.11884563  0.25000000  1
  O  O187  1  0.27227431  -0.11884563  0.75000000  1
  O  O188  1  0.52227431  -0.36884563  0.25000000  1
  O  O189  1  0.52227431  -0.36884563  0.75000000  1
  O  O190  1  0.02227431  -0.36884563  0.25000000  1
  O  O191  1  0.02227431  -0.36884563  0.75000000  1
  O  O192  1  0.88115437  0.72772569  0.25000000  1
  O  O193  1  0.88115437  0.72772569  0.75000000  1
  O  O194  1  0.38115437  0.72772569  0.25000000  1
  O  O195  1  0.38115437  0.72772569  0.75000000  1
  O  O196  1  0.63115437  0.47772569  0.25000000  1
  O  O197  1  0.63115437  0.47772569  0.75000000  1
  O  O198  1  0.88115437  0.22772569  0.25000000  1
  O  O199  1  0.88115437  0.22772569  0.75000000  1
  O  O200  1  0.13115437  0.47772569  0.25000000  1
  O  O201  1  0.13115437  0.47772569  0.75000000  1
  O  O202  1  0.38115437  0.22772569  0.25000000  1
  O  O203  1  0.38115437  0.22772569  0.75000000  1
  O  O204  1  0.63115437  -0.02227431  0.25000000  1
  O  O205  1  0.63115437  -0.02227431  0.75000000  1
  O  O206  1  0.13115437  -0.02227431  0.25000000  1
  O  O207  1  0.13115437  -0.02227431  0.75000000  1
  O  O208  1  0.88115437  0.47772569  0.50000000  1
  O  O209  1  0.88115437  0.47772569  1.00000000  1
  O  O210  1  0.38115437  0.47772569  0.50000000  1
  O  O211  1  0.38115437  0.47772569  1.00000000  1
  O  O212  1  0.63115437  0.22772569  0.50000000  1
  O  O213  1  0.63115437  0.22772569  1.00000000  1
  O  O214  1  0.88115437  -0.02227431  0.50000000  1
  O  O215  1  0.88115437  -0.02227431  1.00000000  1
  O  O216  1  0.13115437  0.22772569  0.50000000  1
  O  O217  1  0.13115437  0.22772569  1.00000000  1
  O  O218  1  0.38115437  -0.02227431  0.50000000  1
  O  O219  1  0.38115437  -0.02227431  1.00000000  1
  O  O220  1  0.63115437  -0.27227431  0.50000000  1
  O  O221  1  0.63115437  -0.27227431  1.00000000  1
  O  O222  1  0.13115437  -0.27227431  0.50000000  1
  O  O223  1  0.13115437  -0.27227431  1.00000000  1
  O  O224  1  0.61884563  0.52227431  0.00000000  1
  O  O225  1  0.61884563  0.52227431  0.50000000  1
  O  O226  1  0.11884563  0.52227431  0.00000000  1
  O  O227  1  0.11884563  0.52227431  0.50000000  1
  O  O228  1  0.36884563  0.27227431  0.00000000  1
  O  O229  1  0.36884563  0.27227431  0.50000000  1
  O  O230  1  0.61884563  0.02227431  0.00000000  1
  O  O231  1  0.61884563  0.02227431  0.50000000  1
  O  O232  1  -0.13115437  0.27227431  0.00000000  1
  O  O233  1  -0.13115437  0.27227431  0.50000000  1
  O  O234  1  0.11884563  0.02227431  0.00000000  1
  O  O235  1  0.11884563  0.02227431  0.50000000  1
  O  O236  1  0.36884563  -0.22772569  0.00000000  1
  O  O237  1  0.36884563  -0.22772569  0.50000000  1
  O  O238  1  -0.13115437  -0.22772569  0.00000000  1
  O  O239  1  -0.13115437  -0.22772569  0.50000000  1
  O  O240  1  0.61884563  0.27227431  0.25000000  1
  O  O241  1  0.61884563  0.27227431  0.75000000  1
  O  O242  1  0.11884563  0.27227431  0.25000000  1
  O  O243  1  0.11884563  0.27227431  0.75000000  1
  O  O244  1  0.36884563  0.02227431  0.25000000  1
  O  O245  1  0.36884563  0.02227431  0.75000000  1
  O  O246  1  0.61884563  -0.22772569  0.25000000  1
  O  O247  1  0.61884563  -0.22772569  0.75000000  1
  O  O248  1  -0.13115437  0.02227431  0.25000000  1
  O  O249  1  -0.13115437  0.02227431  0.75000000  1
  O  O250  1  0.11884563  -0.22772569  0.25000000  1
  O  O251  1  0.11884563  -0.22772569  0.75000000  1
  O  O252  1  0.36884563  -0.47772569  0.25000000  1
  O  O253  1  0.36884563  -0.47772569  0.75000000  1
  O  O254  1  -0.13115437  -0.47772569  0.25000000  1
  O  O255  1  -0.13115437  -0.47772569  0.75000000  1
  O  O256  1  0.75000000  0.75000000  0.11870258  1
  O  O257  1  0.75000000  0.75000000  0.61870258  1
  O  O258  1  0.25000000  0.75000000  0.11870258  1
  O  O259  1  0.25000000  0.75000000  0.61870258  1
  O  O260  1  0.50000000  0.50000000  0.11870258  1
  O  O261  1  0.50000000  0.50000000  0.61870258  1
  O  O262  1  0.75000000  0.25000000  0.11870258  1
  O  O263  1  0.75000000  0.25000000  0.61870258  1
  O  O264  1  -0.00000000  0.50000000  0.11870258  1
  O  O265  1  -0.00000000  0.50000000  0.61870258  1
  O  O266  1  0.25000000  0.25000000  0.11870258  1
  O  O267  1  0.25000000  0.25000000  0.61870258  1
  O  O268  1  0.50000000  -0.00000000  0.11870258  1
  O  O269  1  0.50000000  -0.00000000  0.61870258  1
  O  O270  1  -0.00000000  -0.00000000  0.11870258  1
  O  O271  1  -0.00000000  -0.00000000  0.61870258  1
  O  O272  1  0.75000000  0.50000000  0.36870258  1
  O  O273  1  0.75000000  0.50000000  0.86870258  1
  O  O274  1  0.25000000  0.50000000  0.36870258  1
  O  O275  1  0.25000000  0.50000000  0.86870258  1
  O  O276  1  0.50000000  0.25000000  0.36870258  1
  O  O277  1  0.50000000  0.25000000  0.86870258  1
  O  O278  1  0.75000000  -0.00000000  0.36870258  1
  O  O279  1  0.75000000  -0.00000000  0.86870258  1
  O  O280  1  -0.00000000  0.25000000  0.36870258  1
  O  O281  1  -0.00000000  0.25000000  0.86870258  1
  O  O282  1  0.25000000  -0.00000000  0.36870258  1
  O  O283  1  0.25000000  -0.00000000  0.86870258  1
  O  O284  1  0.50000000  -0.25000000  0.36870258  1
  O  O285  1  0.50000000  -0.25000000  0.86870258  1
  O  O286  1  0.00000000  -0.25000000  0.36870258  1
  O  O287  1  0.00000000  -0.25000000  0.86870258  1
  O  O288  1  0.75000000  0.75000000  0.38129742  1
  O  O289  1  0.75000000  0.75000000  0.88129742  1
  O  O290  1  0.25000000  0.75000000  0.38129742  1
  O  O291  1  0.25000000  0.75000000  0.88129742  1
  O  O292  1  0.50000000  0.50000000  0.38129742  1
  O  O293  1  0.50000000  0.50000000  0.88129742  1
  O  O294  1  0.75000000  0.25000000  0.38129742  1
  O  O295  1  0.75000000  0.25000000  0.88129742  1
  O  O296  1  -0.00000000  0.50000000  0.38129742  1
  O  O297  1  -0.00000000  0.50000000  0.88129742  1
  O  O298  1  0.25000000  0.25000000  0.38129742  1
  O  O299  1  0.25000000  0.25000000  0.88129742  1
  O  O300  1  0.50000000  -0.00000000  0.38129742  1
  O  O301  1  0.50000000  -0.00000000  0.88129742  1
  O  O302  1  0.00000000  -0.00000000  0.38129742  1
  O  O303  1  0.00000000  -0.00000000  0.88129742  1
  O  O304  1  0.75000000  0.50000000  0.63129742  1
  O  O305  1  0.75000000  0.50000000  1.13129742  1
  O  O306  1  0.25000000  0.50000000  0.63129742  1
  O  O307  1  0.25000000  0.50000000  1.13129742  1
  O  O308  1  0.50000000  0.25000000  0.63129742  1
  O  O309  1  0.50000000  0.25000000  1.13129742  1
  O  O310  1  0.75000000  -0.00000000  0.63129742  1
  O  O311  1  0.75000000  -0.00000000  1.13129742  1
  O  O312  1  -0.00000000  0.25000000  0.63129742  1
  O  O313  1  -0.00000000  0.25000000  1.13129742  1
  O  O314  1  0.25000000  -0.00000000  0.63129742  1
  O  O315  1  0.25000000  -0.00000000  1.13129742  1
  O  O316  1  0.50000000  -0.25000000  0.63129742  1
  O  O317  1  0.50000000  -0.25000000  1.13129742  1
  O  O318  1  0.00000000  -0.25000000  0.63129742  1
  O  O319  1  0.00000000  -0.25000000  1.13129742  1
