# generated using pymatgen
data_CsK2AuO2
_symmetry_space_group_name_H-M   'P 1'
_cell_length_a   12.44867578
_cell_length_b   14.65606312
_cell_length_c   12.53739183
_cell_angle_alpha   90.00000000
_cell_angle_beta   90.00000000
_cell_angle_gamma   90.00000000
_symmetry_Int_Tables_number   1
_chemical_formula_structural   CsK2AuO2
_chemical_formula_sum   'Cs16 K32 Au16 O32'
_cell_volume   2287.42931161
_cell_formula_units_Z   16
loop_
 _symmetry_equiv_pos_site_id
 _symmetry_equiv_pos_as_xyz
  1  'x, y, z'
loop_
 _atom_site_type_symbol
 _atom_site_label
 _atom_site_symmetry_multiplicity
 _atom_site_fract_x
 _atom_site_fract_y
 _atom_site_fract_z
 _atom_site_occupancy
  Cs  Cs0  1  0.09524145  0.37500000  0.09518362  1
  Cs  Cs1  1  0.09524145  0.37500000  0.59518362  1
  Cs  Cs2  1  0.09524145  0.87500000  0.09518362  1
  Cs  Cs3  1  0.09524145  0.87500000  0.59518362  1
  Cs  Cs4  1  0.90475855  0.12500000  0.40481638  1
  Cs  Cs5  1  0.90475855  0.12500000  0.90481638  1
  Cs  Cs6  1  0.90475855  0.62500000  0.40481638  1
  Cs  Cs7  1  0.90475855  0.62500000  0.90481638  1
  Cs  Cs8  1  0.40475855  0.12500000  0.34518362  1
  Cs  Cs9  1  0.40475855  0.12500000  0.84518362  1
  Cs  Cs10  1  0.40475855  0.62500000  0.34518362  1
  Cs  Cs11  1  0.40475855  0.62500000  0.84518362  1
  Cs  Cs12  1  0.59524145  0.37500000  0.15481638  1
  Cs  Cs13  1  0.59524145  0.37500000  0.65481638  1
  Cs  Cs14  1  0.59524145  0.87500000  0.15481638  1
  Cs  Cs15  1  0.59524145  0.87500000  0.65481638  1
  K  K16  1  0.36037131  0.49970404  0.07508659  1
  K  K17  1  0.36037131  0.49970404  0.57508659  1
  K  K18  1  0.36037131  0.99970404  0.07508659  1
  K  K19  1  0.36037131  0.99970404  0.57508659  1
  K  K20  1  0.13962869  0.24970404  0.32508659  1
  K  K21  1  0.13962869  0.24970404  0.82508659  1
  K  K22  1  0.13962869  0.74970404  0.32508659  1
  K  K23  1  0.13962869  0.74970404  0.82508659  1
  K  K24  1  0.86037131  0.49970404  0.17491341  1
  K  K25  1  0.86037131  0.49970404  0.67491341  1
  K  K26  1  0.86037131  0.99970404  0.17491341  1
  K  K27  1  0.86037131  0.99970404  0.67491341  1
  K  K28  1  0.13962869  0.00029596  0.32508659  1
  K  K29  1  0.13962869  0.00029596  0.82508659  1
  K  K30  1  0.13962869  0.50029596  0.32508659  1
  K  K31  1  0.13962869  0.50029596  0.82508659  1
  K  K32  1  0.36037131  0.25029596  0.07508659  1
  K  K33  1  0.36037131  0.25029596  0.57508659  1
  K  K34  1  0.36037131  0.75029596  0.07508659  1
  K  K35  1  0.36037131  0.75029596  0.57508659  1
  K  K36  1  0.86037131  0.25029596  0.17491341  1
  K  K37  1  0.86037131  0.25029596  0.67491341  1
  K  K38  1  0.86037131  0.75029596  0.17491341  1
  K  K39  1  0.86037131  0.75029596  0.67491341  1
  K  K40  1  0.63962869  0.00029596  0.42491341  1
  K  K41  1  0.63962869  0.00029596  0.92491341  1
  K  K42  1  0.63962869  0.50029596  0.42491341  1
  K  K43  1  0.63962869  0.50029596  0.92491341  1
  K  K44  1  0.63962869  0.24970404  0.42491341  1
  K  K45  1  0.63962869  0.24970404  0.92491341  1
  K  K46  1  0.63962869  0.74970404  0.42491341  1
  K  K47  1  0.63962869  0.74970404  0.92491341  1
  Au  Au48  1  0.37859617  0.37500000  0.34087285  1
  Au  Au49  1  0.37859617  0.37500000  0.84087285  1
  Au  Au50  1  0.37859617  0.87500000  0.34087285  1
  Au  Au51  1  0.37859617  0.87500000  0.84087285  1
  Au  Au52  1  0.12140383  0.12500000  0.09087285  1
  Au  Au53  1  0.12140383  0.12500000  0.59087285  1
  Au  Au54  1  0.12140383  0.62500000  0.09087285  1
  Au  Au55  1  0.12140383  0.62500000  0.59087285  1
  Au  Au56  1  0.62140383  0.12500000  0.15912715  1
  Au  Au57  1  0.62140383  0.12500000  0.65912715  1
  Au  Au58  1  0.62140383  0.62500000  0.15912715  1
  Au  Au59  1  0.62140383  0.62500000  0.65912715  1
  Au  Au60  1  0.87859617  0.37500000  0.40912715  1
  Au  Au61  1  0.87859617  0.37500000  0.90912715  1
  Au  Au62  1  0.87859617  0.87500000  0.40912715  1
  Au  Au63  1  0.87859617  0.87500000  0.90912715  1
  O  O64  1  0.98117207  0.37500000  0.28647172  1
  O  O65  1  0.98117207  0.37500000  0.78647172  1
  O  O66  1  0.98117207  0.87500000  0.28647172  1
  O  O67  1  0.98117207  0.87500000  0.78647172  1
  O  O68  1  0.51882793  0.12500000  0.03647172  1
  O  O69  1  0.51882793  0.12500000  0.53647172  1
  O  O70  1  0.51882793  0.62500000  0.03647172  1
  O  O71  1  0.51882793  0.62500000  0.53647172  1
  O  O72  1  0.72519415  0.12500000  0.28078468  1
  O  O73  1  0.72519415  0.12500000  0.78078468  1
  O  O74  1  0.72519415  0.62500000  0.28078468  1
  O  O75  1  0.72519415  0.62500000  0.78078468  1
  O  O76  1  0.01882793  0.12500000  0.21352828  1
  O  O77  1  0.01882793  0.12500000  0.71352828  1
  O  O78  1  0.01882793  0.62500000  0.21352828  1
  O  O79  1  0.01882793  0.62500000  0.71352828  1
  O  O80  1  0.48117207  0.37500000  0.46352828  1
  O  O81  1  0.48117207  0.37500000  0.96352828  1
  O  O82  1  0.48117207  0.87500000  0.46352828  1
  O  O83  1  0.48117207  0.87500000  0.96352828  1
  O  O84  1  0.27480585  0.37500000  0.21921532  1
  O  O85  1  0.27480585  0.37500000  0.71921532  1
  O  O86  1  0.27480585  0.87500000  0.21921532  1
  O  O87  1  0.27480585  0.87500000  0.71921532  1
  O  O88  1  0.22519415  0.12500000  0.46921532  1
  O  O89  1  0.22519415  0.12500000  0.96921532  1
  O  O90  1  0.22519415  0.62500000  0.46921532  1
  O  O91  1  0.22519415  0.62500000  0.96921532  1
  O  O92  1  0.77480585  0.37500000  0.03078468  1
  O  O93  1  0.77480585  0.37500000  0.53078468  1
  O  O94  1  0.77480585  0.87500000  0.03078468  1
  O  O95  1  0.77480585  0.87500000  0.53078468  1
