# generated using pymatgen
data_Ba2TaBiO6
_symmetry_space_group_name_H-M   'P 1'
_cell_length_a   20.86340176
_cell_length_b   18.07783907
_cell_length_c   18.31068472
_cell_angle_alpha   90.00000000
_cell_angle_beta   125.24381679
_cell_angle_gamma   90.00000000
_symmetry_Int_Tables_number   1
_chemical_formula_structural   Ba2TaBiO6
_chemical_formula_sum   'Ba72 Ta36 Bi36 O216'
_cell_volume   5640.28197992
_cell_formula_units_Z   36
loop_
 _symmetry_equiv_pos_site_id
 _symmetry_equiv_pos_as_xyz
  1  'x, y, z'
loop_
 _atom_site_type_symbol
 _atom_site_label
 _atom_site_symmetry_multiplicity
 _atom_site_fract_x
 _atom_site_fract_y
 _atom_site_fract_z
 _atom_site_occupancy
  Ba  Ba0  1  0.37566846  0.00000000  0.25230859  1
  Ba  Ba1  1  0.37566846  0.00000000  0.58564192  1
  Ba  Ba2  1  0.37566846  0.00000000  0.91897525  1
  Ba  Ba3  1  0.37566846  0.33333333  0.25230859  1
  Ba  Ba4  1  0.37566846  0.33333333  0.58564192  1
  Ba  Ba5  1  0.37566846  0.33333333  0.91897525  1
  Ba  Ba6  1  0.37566846  0.66666667  0.25230859  1
  Ba  Ba7  1  0.37566846  0.66666667  0.58564192  1
  Ba  Ba8  1  0.37566846  0.66666667  0.91897525  1
  Ba  Ba9  1  0.87566846  0.00000000  0.25230859  1
  Ba  Ba10  1  0.87566846  0.00000000  0.58564192  1
  Ba  Ba11  1  0.87566846  0.00000000  0.91897525  1
  Ba  Ba12  1  0.87566846  0.33333333  0.25230859  1
  Ba  Ba13  1  0.87566846  0.33333333  0.58564192  1
  Ba  Ba14  1  0.87566846  0.33333333  0.91897525  1
  Ba  Ba15  1  0.87566846  0.66666667  0.25230859  1
  Ba  Ba16  1  0.87566846  0.66666667  0.58564192  1
  Ba  Ba17  1  0.87566846  0.66666667  0.91897525  1
  Ba  Ba18  1  0.62566846  0.16666667  0.25230859  1
  Ba  Ba19  1  0.62566846  0.16666667  0.58564192  1
  Ba  Ba20  1  0.62566846  0.16666667  0.91897525  1
  Ba  Ba21  1  0.62566846  0.50000000  0.25230859  1
  Ba  Ba22  1  0.62566846  0.50000000  0.58564192  1
  Ba  Ba23  1  0.62566846  0.50000000  0.91897525  1
  Ba  Ba24  1  0.62566846  0.83333333  0.25230859  1
  Ba  Ba25  1  0.62566846  0.83333333  0.58564192  1
  Ba  Ba26  1  0.62566846  0.83333333  0.91897525  1
  Ba  Ba27  1  1.12566846  0.16666667  0.25230859  1
  Ba  Ba28  1  1.12566846  0.16666667  0.58564192  1
  Ba  Ba29  1  1.12566846  0.16666667  0.91897525  1
  Ba  Ba30  1  1.12566846  0.50000000  0.25230859  1
  Ba  Ba31  1  1.12566846  0.50000000  0.58564192  1
  Ba  Ba32  1  1.12566846  0.50000000  0.91897525  1
  Ba  Ba33  1  1.12566846  0.83333333  0.25230859  1
  Ba  Ba34  1  1.12566846  0.83333333  0.58564192  1
  Ba  Ba35  1  1.12566846  0.83333333  0.91897525  1
  Ba  Ba36  1  0.12433154  -0.00000000  0.08102475  1
  Ba  Ba37  1  0.12433154  -0.00000000  0.41435808  1
  Ba  Ba38  1  0.12433154  -0.00000000  0.74769141  1
  Ba  Ba39  1  0.12433154  0.33333333  0.08102475  1
  Ba  Ba40  1  0.12433154  0.33333333  0.41435808  1
  Ba  Ba41  1  0.12433154  0.33333333  0.74769141  1
  Ba  Ba42  1  0.12433154  0.66666667  0.08102475  1
  Ba  Ba43  1  0.12433154  0.66666667  0.41435808  1
  Ba  Ba44  1  0.12433154  0.66666667  0.74769141  1
  Ba  Ba45  1  0.62433154  -0.00000000  0.08102475  1
  Ba  Ba46  1  0.62433154  -0.00000000  0.41435808  1
  Ba  Ba47  1  0.62433154  -0.00000000  0.74769141  1
  Ba  Ba48  1  0.62433154  0.33333333  0.08102475  1
  Ba  Ba49  1  0.62433154  0.33333333  0.41435808  1
  Ba  Ba50  1  0.62433154  0.33333333  0.74769141  1
  Ba  Ba51  1  0.62433154  0.66666667  0.08102475  1
  Ba  Ba52  1  0.62433154  0.66666667  0.41435808  1
  Ba  Ba53  1  0.62433154  0.66666667  0.74769141  1
  Ba  Ba54  1  0.37433154  0.16666667  0.08102475  1
  Ba  Ba55  1  0.37433154  0.16666667  0.41435808  1
  Ba  Ba56  1  0.37433154  0.16666667  0.74769141  1
  Ba  Ba57  1  0.37433154  0.50000000  0.08102475  1
  Ba  Ba58  1  0.37433154  0.50000000  0.41435808  1
  Ba  Ba59  1  0.37433154  0.50000000  0.74769141  1
  Ba  Ba60  1  0.37433154  0.83333333  0.08102475  1
  Ba  Ba61  1  0.37433154  0.83333333  0.41435808  1
  Ba  Ba62  1  0.37433154  0.83333333  0.74769141  1
  Ba  Ba63  1  0.87433154  0.16666667  0.08102475  1
  Ba  Ba64  1  0.87433154  0.16666667  0.41435808  1
  Ba  Ba65  1  0.87433154  0.16666667  0.74769141  1
  Ba  Ba66  1  0.87433154  0.50000000  0.08102475  1
  Ba  Ba67  1  0.87433154  0.50000000  0.41435808  1
  Ba  Ba68  1  0.87433154  0.50000000  0.74769141  1
  Ba  Ba69  1  0.87433154  0.83333333  0.08102475  1
  Ba  Ba70  1  0.87433154  0.83333333  0.41435808  1
  Ba  Ba71  1  0.87433154  0.83333333  0.74769141  1
  Ta  Ta72  1  0.25000000  0.00000000  0.00000000  1
  Ta  Ta73  1  0.25000000  0.00000000  0.33333333  1
  Ta  Ta74  1  0.25000000  0.00000000  0.66666667  1
  Ta  Ta75  1  0.25000000  0.33333333  0.00000000  1
  Ta  Ta76  1  0.25000000  0.33333333  0.33333333  1
  Ta  Ta77  1  0.25000000  0.33333333  0.66666667  1
  Ta  Ta78  1  0.25000000  0.66666667  0.00000000  1
  Ta  Ta79  1  0.25000000  0.66666667  0.33333333  1
  Ta  Ta80  1  0.25000000  0.66666667  0.66666667  1
  Ta  Ta81  1  0.75000000  0.00000000  0.00000000  1
  Ta  Ta82  1  0.75000000  0.00000000  0.33333333  1
  Ta  Ta83  1  0.75000000  0.00000000  0.66666667  1
  Ta  Ta84  1  0.75000000  0.33333333  0.00000000  1
  Ta  Ta85  1  0.75000000  0.33333333  0.33333333  1
  Ta  Ta86  1  0.75000000  0.33333333  0.66666667  1
  Ta  Ta87  1  0.75000000  0.66666667  0.00000000  1
  Ta  Ta88  1  0.75000000  0.66666667  0.33333333  1
  Ta  Ta89  1  0.75000000  0.66666667  0.66666667  1
  Ta  Ta90  1  0.50000000  0.16666667  0.00000000  1
  Ta  Ta91  1  0.50000000  0.16666667  0.33333333  1
  Ta  Ta92  1  0.50000000  0.16666667  0.66666667  1
  Ta  Ta93  1  0.50000000  0.50000000  0.00000000  1
  Ta  Ta94  1  0.50000000  0.50000000  0.33333333  1
  Ta  Ta95  1  0.50000000  0.50000000  0.66666667  1
  Ta  Ta96  1  0.50000000  0.83333333  0.00000000  1
  Ta  Ta97  1  0.50000000  0.83333333  0.33333333  1
  Ta  Ta98  1  0.50000000  0.83333333  0.66666667  1
  Ta  Ta99  1  1.00000000  0.16666667  0.00000000  1
  Ta  Ta100  1  1.00000000  0.16666667  0.33333333  1
  Ta  Ta101  1  1.00000000  0.16666667  0.66666667  1
  Ta  Ta102  1  1.00000000  0.50000000  0.00000000  1
  Ta  Ta103  1  1.00000000  0.50000000  0.33333333  1
  Ta  Ta104  1  1.00000000  0.50000000  0.66666667  1
  Ta  Ta105  1  1.00000000  0.83333333  0.00000000  1
  Ta  Ta106  1  1.00000000  0.83333333  0.33333333  1
  Ta  Ta107  1  1.00000000  0.83333333  0.66666667  1
  Bi  Bi108  1  -0.00000000  0.00000000  0.16666667  1
  Bi  Bi109  1  0.00000000  0.00000000  0.50000000  1
  Bi  Bi110  1  -0.00000000  0.00000000  0.83333333  1
  Bi  Bi111  1  -0.00000000  0.33333333  0.16666667  1
  Bi  Bi112  1  0.00000000  0.33333333  0.50000000  1
  Bi  Bi113  1  -0.00000000  0.33333333  0.83333333  1
  Bi  Bi114  1  -0.00000000  0.66666667  0.16666667  1
  Bi  Bi115  1  0.00000000  0.66666667  0.50000000  1
  Bi  Bi116  1  -0.00000000  0.66666667  0.83333333  1
  Bi  Bi117  1  0.50000000  0.00000000  0.16666667  1
  Bi  Bi118  1  0.50000000  0.00000000  0.50000000  1
  Bi  Bi119  1  0.50000000  0.00000000  0.83333333  1
  Bi  Bi120  1  0.50000000  0.33333333  0.16666667  1
  Bi  Bi121  1  0.50000000  0.33333333  0.50000000  1
  Bi  Bi122  1  0.50000000  0.33333333  0.83333333  1
  Bi  Bi123  1  0.50000000  0.66666667  0.16666667  1
  Bi  Bi124  1  0.50000000  0.66666667  0.50000000  1
  Bi  Bi125  1  0.50000000  0.66666667  0.83333333  1
  Bi  Bi126  1  0.25000000  0.16666667  0.16666667  1
  Bi  Bi127  1  0.25000000  0.16666667  0.50000000  1
  Bi  Bi128  1  0.25000000  0.16666667  0.83333333  1
  Bi  Bi129  1  0.25000000  0.50000000  0.16666667  1
  Bi  Bi130  1  0.25000000  0.50000000  0.50000000  1
  Bi  Bi131  1  0.25000000  0.50000000  0.83333333  1
  Bi  Bi132  1  0.25000000  0.83333333  0.16666667  1
  Bi  Bi133  1  0.25000000  0.83333333  0.50000000  1
  Bi  Bi134  1  0.25000000  0.83333333  0.83333333  1
  Bi  Bi135  1  0.75000000  0.16666667  0.16666667  1
  Bi  Bi136  1  0.75000000  0.16666667  0.50000000  1
  Bi  Bi137  1  0.75000000  0.16666667  0.83333333  1
  Bi  Bi138  1  0.75000000  0.50000000  0.16666667  1
  Bi  Bi139  1  0.75000000  0.50000000  0.50000000  1
  Bi  Bi140  1  0.75000000  0.50000000  0.83333333  1
  Bi  Bi141  1  0.75000000  0.83333333  0.16666667  1
  Bi  Bi142  1  0.75000000  0.83333333  0.50000000  1
  Bi  Bi143  1  0.75000000  0.83333333  0.83333333  1
  O  O144  1  0.26832301  -0.07766316  0.26970317  1
  O  O145  1  0.26832301  -0.07766316  0.60303651  1
  O  O146  1  0.26832301  -0.07766316  0.93636984  1
  O  O147  1  0.26832301  0.25567017  0.26970317  1
  O  O148  1  0.26832301  0.25567017  0.60303651  1
  O  O149  1  0.26832301  0.25567017  0.93636984  1
  O  O150  1  0.26832301  0.58900351  0.26970317  1
  O  O151  1  0.26832301  0.58900351  0.60303651  1
  O  O152  1  0.26832301  0.58900351  0.93636984  1
  O  O153  1  0.76832301  -0.07766316  0.26970317  1
  O  O154  1  0.76832301  -0.07766316  0.60303651  1
  O  O155  1  0.76832301  -0.07766316  0.93636984  1
  O  O156  1  0.76832301  0.25567017  0.26970317  1
  O  O157  1  0.76832301  0.25567017  0.60303651  1
  O  O158  1  0.76832301  0.25567017  0.93636984  1
  O  O159  1  0.76832301  0.58900351  0.26970317  1
  O  O160  1  0.76832301  0.58900351  0.60303651  1
  O  O161  1  0.76832301  0.58900351  0.93636984  1
  O  O162  1  0.51832301  0.08900351  0.26970317  1
  O  O163  1  0.51832301  0.08900351  0.60303651  1
  O  O164  1  0.51832301  0.08900351  0.93636984  1
  O  O165  1  0.51832301  0.42233684  0.26970317  1
  O  O166  1  0.51832301  0.42233684  0.60303651  1
  O  O167  1  0.51832301  0.42233684  0.93636984  1
  O  O168  1  0.51832301  0.75567017  0.26970317  1
  O  O169  1  0.51832301  0.75567017  0.60303651  1
  O  O170  1  0.51832301  0.75567017  0.93636984  1
  O  O171  1  1.01832301  0.08900351  0.26970317  1
  O  O172  1  1.01832301  0.08900351  0.60303651  1
  O  O173  1  1.01832301  0.08900351  0.93636984  1
  O  O174  1  1.01832301  0.42233684  0.26970317  1
  O  O175  1  1.01832301  0.42233684  0.60303651  1
  O  O176  1  1.01832301  0.42233684  0.93636984  1
  O  O177  1  1.01832301  0.75567017  0.26970317  1
  O  O178  1  1.01832301  0.75567017  0.60303651  1
  O  O179  1  1.01832301  0.75567017  0.93636984  1
  O  O180  1  0.23167699  0.07766316  0.06363016  1
  O  O181  1  0.23167699  0.07766316  0.39696349  1
  O  O182  1  0.23167699  0.07766316  0.73029683  1
  O  O183  1  0.23167699  0.41099649  0.06363016  1
  O  O184  1  0.23167699  0.41099649  0.39696349  1
  O  O185  1  0.23167699  0.41099649  0.73029683  1
  O  O186  1  0.23167699  0.74432983  0.06363016  1
  O  O187  1  0.23167699  0.74432983  0.39696349  1
  O  O188  1  0.23167699  0.74432983  0.73029683  1
  O  O189  1  0.73167699  0.07766316  0.06363016  1
  O  O190  1  0.73167699  0.07766316  0.39696349  1
  O  O191  1  0.73167699  0.07766316  0.73029683  1
  O  O192  1  0.73167699  0.41099649  0.06363016  1
  O  O193  1  0.73167699  0.41099649  0.39696349  1
  O  O194  1  0.73167699  0.41099649  0.73029683  1
  O  O195  1  0.73167699  0.74432983  0.06363016  1
  O  O196  1  0.73167699  0.74432983  0.39696349  1
  O  O197  1  0.73167699  0.74432983  0.73029683  1
  O  O198  1  0.48167699  0.24432983  0.06363016  1
  O  O199  1  0.48167699  0.24432983  0.39696349  1
  O  O200  1  0.48167699  0.24432983  0.73029683  1
  O  O201  1  0.48167699  0.57766316  0.06363016  1
  O  O202  1  0.48167699  0.57766316  0.39696349  1
  O  O203  1  0.48167699  0.57766316  0.73029683  1
  O  O204  1  0.48167699  0.91099649  0.06363016  1
  O  O205  1  0.48167699  0.91099649  0.39696349  1
  O  O206  1  0.48167699  0.91099649  0.73029683  1
  O  O207  1  0.98167699  0.24432983  0.06363016  1
  O  O208  1  0.98167699  0.24432983  0.39696349  1
  O  O209  1  0.98167699  0.24432983  0.73029683  1
  O  O210  1  0.98167699  0.57766316  0.06363016  1
  O  O211  1  0.98167699  0.57766316  0.39696349  1
  O  O212  1  0.98167699  0.57766316  0.73029683  1
  O  O213  1  0.98167699  0.91099649  0.06363016  1
  O  O214  1  0.98167699  0.91099649  0.39696349  1
  O  O215  1  0.98167699  0.91099649  0.73029683  1
  O  O216  1  0.26832301  0.07766316  0.26970317  1
  O  O217  1  0.26832301  0.07766316  0.60303651  1
  O  O218  1  0.26832301  0.07766316  0.93636984  1
  O  O219  1  0.26832301  0.41099649  0.26970317  1
  O  O220  1  0.26832301  0.41099649  0.60303651  1
  O  O221  1  0.26832301  0.41099649  0.93636984  1
  O  O222  1  0.26832301  0.74432983  0.26970317  1
  O  O223  1  0.26832301  0.74432983  0.60303651  1
  O  O224  1  0.26832301  0.74432983  0.93636984  1
  O  O225  1  0.76832301  0.07766316  0.26970317  1
  O  O226  1  0.76832301  0.07766316  0.60303651  1
  O  O227  1  0.76832301  0.07766316  0.93636984  1
  O  O228  1  0.76832301  0.41099649  0.26970317  1
  O  O229  1  0.76832301  0.41099649  0.60303651  1
  O  O230  1  0.76832301  0.41099649  0.93636984  1
  O  O231  1  0.76832301  0.74432983  0.26970317  1
  O  O232  1  0.76832301  0.74432983  0.60303651  1
  O  O233  1  0.76832301  0.74432983  0.93636984  1
  O  O234  1  0.51832301  0.24432983  0.26970317  1
  O  O235  1  0.51832301  0.24432983  0.60303651  1
  O  O236  1  0.51832301  0.24432983  0.93636984  1
  O  O237  1  0.51832301  0.57766316  0.26970317  1
  O  O238  1  0.51832301  0.57766316  0.60303651  1
  O  O239  1  0.51832301  0.57766316  0.93636984  1
  O  O240  1  0.51832301  0.91099649  0.26970317  1
  O  O241  1  0.51832301  0.91099649  0.60303651  1
  O  O242  1  0.51832301  0.91099649  0.93636984  1
  O  O243  1  1.01832301  0.24432983  0.26970317  1
  O  O244  1  1.01832301  0.24432983  0.60303651  1
  O  O245  1  1.01832301  0.24432983  0.93636984  1
  O  O246  1  1.01832301  0.57766316  0.26970317  1
  O  O247  1  1.01832301  0.57766316  0.60303651  1
  O  O248  1  1.01832301  0.57766316  0.93636984  1
  O  O249  1  1.01832301  0.91099649  0.26970317  1
  O  O250  1  1.01832301  0.91099649  0.60303651  1
  O  O251  1  1.01832301  0.91099649  0.93636984  1
  O  O252  1  0.36450384  0.00000000  0.09855946  1
  O  O253  1  0.36450384  0.00000000  0.43189279  1
  O  O254  1  0.36450384  0.00000000  0.76522613  1
  O  O255  1  0.36450384  0.33333333  0.09855946  1
  O  O256  1  0.36450384  0.33333333  0.43189279  1
  O  O257  1  0.36450384  0.33333333  0.76522613  1
  O  O258  1  0.36450384  0.66666667  0.09855946  1
  O  O259  1  0.36450384  0.66666667  0.43189279  1
  O  O260  1  0.36450384  0.66666667  0.76522613  1
  O  O261  1  0.86450384  0.00000000  0.09855946  1
  O  O262  1  0.86450384  0.00000000  0.43189279  1
  O  O263  1  0.86450384  0.00000000  0.76522613  1
  O  O264  1  0.86450384  0.33333333  0.09855946  1
  O  O265  1  0.86450384  0.33333333  0.43189279  1
  O  O266  1  0.86450384  0.33333333  0.76522613  1
  O  O267  1  0.86450384  0.66666667  0.09855946  1
  O  O268  1  0.86450384  0.66666667  0.43189279  1
  O  O269  1  0.86450384  0.66666667  0.76522613  1
  O  O270  1  0.61450384  0.16666667  0.09855946  1
  O  O271  1  0.61450384  0.16666667  0.43189279  1
  O  O272  1  0.61450384  0.16666667  0.76522613  1
  O  O273  1  0.61450384  0.50000000  0.09855946  1
  O  O274  1  0.61450384  0.50000000  0.43189279  1
  O  O275  1  0.61450384  0.50000000  0.76522613  1
  O  O276  1  0.61450384  0.83333333  0.09855946  1
  O  O277  1  0.61450384  0.83333333  0.43189279  1
  O  O278  1  0.61450384  0.83333333  0.76522613  1
  O  O279  1  1.11450384  0.16666667  0.09855946  1
  O  O280  1  1.11450384  0.16666667  0.43189279  1
  O  O281  1  1.11450384  0.16666667  0.76522613  1
  O  O282  1  1.11450384  0.50000000  0.09855946  1
  O  O283  1  1.11450384  0.50000000  0.43189279  1
  O  O284  1  1.11450384  0.50000000  0.76522613  1
  O  O285  1  1.11450384  0.83333333  0.09855946  1
  O  O286  1  1.11450384  0.83333333  0.43189279  1
  O  O287  1  1.11450384  0.83333333  0.76522613  1
  O  O288  1  0.23167699  -0.07766316  0.06363016  1
  O  O289  1  0.23167699  -0.07766316  0.39696349  1
  O  O290  1  0.23167699  -0.07766316  0.73029683  1
  O  O291  1  0.23167699  0.25567017  0.06363016  1
  O  O292  1  0.23167699  0.25567017  0.39696349  1
  O  O293  1  0.23167699  0.25567017  0.73029683  1
  O  O294  1  0.23167699  0.58900351  0.06363016  1
  O  O295  1  0.23167699  0.58900351  0.39696349  1
  O  O296  1  0.23167699  0.58900351  0.73029683  1
  O  O297  1  0.73167699  -0.07766316  0.06363016  1
  O  O298  1  0.73167699  -0.07766316  0.39696349  1
  O  O299  1  0.73167699  -0.07766316  0.73029683  1
  O  O300  1  0.73167699  0.25567017  0.06363016  1
  O  O301  1  0.73167699  0.25567017  0.39696349  1
  O  O302  1  0.73167699  0.25567017  0.73029683  1
  O  O303  1  0.73167699  0.58900351  0.06363016  1
  O  O304  1  0.73167699  0.58900351  0.39696349  1
  O  O305  1  0.73167699  0.58900351  0.73029683  1
  O  O306  1  0.48167699  0.08900351  0.06363016  1
  O  O307  1  0.48167699  0.08900351  0.39696349  1
  O  O308  1  0.48167699  0.08900351  0.73029683  1
  O  O309  1  0.48167699  0.42233684  0.06363016  1
  O  O310  1  0.48167699  0.42233684  0.39696349  1
  O  O311  1  0.48167699  0.42233684  0.73029683  1
  O  O312  1  0.48167699  0.75567017  0.06363016  1
  O  O313  1  0.48167699  0.75567017  0.39696349  1
  O  O314  1  0.48167699  0.75567017  0.73029683  1
  O  O315  1  0.98167699  0.08900351  0.06363016  1
  O  O316  1  0.98167699  0.08900351  0.39696349  1
  O  O317  1  0.98167699  0.08900351  0.73029683  1
  O  O318  1  0.98167699  0.42233684  0.06363016  1
  O  O319  1  0.98167699  0.42233684  0.39696349  1
  O  O320  1  0.98167699  0.42233684  0.73029683  1
  O  O321  1  0.98167699  0.75567017  0.06363016  1
  O  O322  1  0.98167699  0.75567017  0.39696349  1
  O  O323  1  0.98167699  0.75567017  0.73029683  1
  O  O324  1  0.13549616  0.00000000  0.23477387  1
  O  O325  1  0.13549616  0.00000000  0.56810721  1
  O  O326  1  0.13549616  0.00000000  0.90144054  1
  O  O327  1  0.13549616  0.33333333  0.23477387  1
  O  O328  1  0.13549616  0.33333333  0.56810721  1
  O  O329  1  0.13549616  0.33333333  0.90144054  1
  O  O330  1  0.13549616  0.66666667  0.23477387  1
  O  O331  1  0.13549616  0.66666667  0.56810721  1
  O  O332  1  0.13549616  0.66666667  0.90144054  1
  O  O333  1  0.63549616  0.00000000  0.23477387  1
  O  O334  1  0.63549616  0.00000000  0.56810721  1
  O  O335  1  0.63549616  0.00000000  0.90144054  1
  O  O336  1  0.63549616  0.33333333  0.23477387  1
  O  O337  1  0.63549616  0.33333333  0.56810721  1
  O  O338  1  0.63549616  0.33333333  0.90144054  1
  O  O339  1  0.63549616  0.66666667  0.23477387  1
  O  O340  1  0.63549616  0.66666667  0.56810721  1
  O  O341  1  0.63549616  0.66666667  0.90144054  1
  O  O342  1  0.38549616  0.16666667  0.23477387  1
  O  O343  1  0.38549616  0.16666667  0.56810721  1
  O  O344  1  0.38549616  0.16666667  0.90144054  1
  O  O345  1  0.38549616  0.50000000  0.23477387  1
  O  O346  1  0.38549616  0.50000000  0.56810721  1
  O  O347  1  0.38549616  0.50000000  0.90144054  1
  O  O348  1  0.38549616  0.83333333  0.23477387  1
  O  O349  1  0.38549616  0.83333333  0.56810721  1
  O  O350  1  0.38549616  0.83333333  0.90144054  1
  O  O351  1  0.88549616  0.16666667  0.23477387  1
  O  O352  1  0.88549616  0.16666667  0.56810721  1
  O  O353  1  0.88549616  0.16666667  0.90144054  1
  O  O354  1  0.88549616  0.50000000  0.23477387  1
  O  O355  1  0.88549616  0.50000000  0.56810721  1
  O  O356  1  0.88549616  0.50000000  0.90144054  1
  O  O357  1  0.88549616  0.83333333  0.23477387  1
  O  O358  1  0.88549616  0.83333333  0.56810721  1
  O  O359  1  0.88549616  0.83333333  0.90144054  1
