# generated using pymatgen
data_As2PbO4
_symmetry_space_group_name_H-M   'P 1'
_cell_length_a   14.08369926
_cell_length_b   11.70328514
_cell_length_c   12.09767483
_cell_angle_alpha   90.00000000
_cell_angle_beta   111.19458568
_cell_angle_gamma   90.00000000
_symmetry_Int_Tables_number   1
_chemical_formula_structural   As2PbO4
_chemical_formula_sum   'As32 Pb16 O64'
_cell_volume   1859.12727907
_cell_formula_units_Z   16
loop_
 _symmetry_equiv_pos_site_id
 _symmetry_equiv_pos_as_xyz
  1  'x, y, z'
loop_
 _atom_site_type_symbol
 _atom_site_label
 _atom_site_symmetry_multiplicity
 _atom_site_fract_x
 _atom_site_fract_y
 _atom_site_fract_z
 _atom_site_occupancy
  As  As0  1  0.36264471  0.08126235  0.14538532  1
  As  As1  1  0.36264471  0.08126235  0.64538532  1
  As  As2  1  0.86264471  0.08126235  0.14538532  1
  As  As3  1  0.86264471  0.08126235  0.64538532  1
  As  As4  1  0.13735529  0.58126235  0.10461468  1
  As  As5  1  0.13735529  0.58126235  0.60461468  1
  As  As6  1  0.63735529  0.58126235  0.10461468  1
  As  As7  1  0.63735529  0.58126235  0.60461468  1
  As  As8  1  0.13735529  0.91873765  0.35461468  1
  As  As9  1  0.13735529  0.91873765  0.85461468  1
  As  As10  1  0.63735529  0.91873765  0.35461468  1
  As  As11  1  0.63735529  0.91873765  0.85461468  1
  As  As12  1  0.36264471  0.41873765  0.39538532  1
  As  As13  1  0.36264471  0.41873765  0.89538532  1
  As  As14  1  0.86264471  0.41873765  0.39538532  1
  As  As15  1  0.86264471  0.41873765  0.89538532  1
  As  As16  1  0.19031782  0.14487370  0.24403150  1
  As  As17  1  0.19031782  0.14487370  0.74403150  1
  As  As18  1  0.69031782  0.14487370  0.24403150  1
  As  As19  1  0.69031782  0.14487370  0.74403150  1
  As  As20  1  0.30968218  0.64487370  0.00596850  1
  As  As21  1  0.30968218  0.64487370  0.50596850  1
  As  As22  1  0.80968218  0.64487370  0.00596850  1
  As  As23  1  0.80968218  0.64487370  0.50596850  1
  As  As24  1  0.30968218  0.85512630  0.25596850  1
  As  As25  1  0.30968218  0.85512630  0.75596850  1
  As  As26  1  0.80968218  0.85512630  0.25596850  1
  As  As27  1  0.80968218  0.85512630  0.75596850  1
  As  As28  1  0.19031782  0.35512630  0.49403150  1
  As  As29  1  0.19031782  0.35512630  0.99403150  1
  As  As30  1  0.69031782  0.35512630  0.49403150  1
  As  As31  1  0.69031782  0.35512630  0.99403150  1
  Pb  Pb32  1  0.49600764  0.35093744  0.20119676  1
  Pb  Pb33  1  0.49600764  0.35093744  0.70119676  1
  Pb  Pb34  1  0.99600764  0.35093744  0.20119676  1
  Pb  Pb35  1  0.99600764  0.35093744  0.70119676  1
  Pb  Pb36  1  0.00399236  0.85093744  0.04880324  1
  Pb  Pb37  1  0.00399236  0.85093744  0.54880324  1
  Pb  Pb38  1  0.50399236  0.85093744  0.04880324  1
  Pb  Pb39  1  0.50399236  0.85093744  0.54880324  1
  Pb  Pb40  1  0.00399236  0.64906256  0.29880324  1
  Pb  Pb41  1  0.00399236  0.64906256  0.79880324  1
  Pb  Pb42  1  0.50399236  0.64906256  0.29880324  1
  Pb  Pb43  1  0.50399236  0.64906256  0.79880324  1
  Pb  Pb44  1  0.49600764  0.14906256  0.45119676  1
  Pb  Pb45  1  0.49600764  0.14906256  0.95119676  1
  Pb  Pb46  1  0.99600764  0.14906256  0.45119676  1
  Pb  Pb47  1  0.99600764  0.14906256  0.95119676  1
  O  O48  1  0.22805105  0.08318247  0.12399424  1
  O  O49  1  0.22805105  0.08318247  0.62399424  1
  O  O50  1  0.72805105  0.08318247  0.12399424  1
  O  O51  1  0.72805105  0.08318247  0.62399424  1
  O  O52  1  0.27194895  0.58318247  0.12600576  1
  O  O53  1  0.27194895  0.58318247  0.62600576  1
  O  O54  1  0.77194895  0.58318247  0.12600576  1
  O  O55  1  0.77194895  0.58318247  0.62600576  1
  O  O56  1  0.27194895  0.91681753  0.37600576  1
  O  O57  1  0.27194895  0.91681753  0.87600576  1
  O  O58  1  0.77194895  0.91681753  0.37600576  1
  O  O59  1  0.77194895  0.91681753  0.87600576  1
  O  O60  1  0.22805105  0.41681753  0.37399424  1
  O  O61  1  0.22805105  0.41681753  0.87399424  1
  O  O62  1  0.72805105  0.41681753  0.37399424  1
  O  O63  1  0.72805105  0.41681753  0.87399424  1
  O  O64  1  0.09982828  0.02858406  0.23747557  1
  O  O65  1  0.09982828  0.02858406  0.73747557  1
  O  O66  1  0.59982828  0.02858406  0.23747557  1
  O  O67  1  0.59982828  0.02858406  0.73747557  1
  O  O68  1  0.40017172  0.52858406  0.01252443  1
  O  O69  1  0.40017172  0.52858406  0.51252443  1
  O  O70  1  0.90017172  0.52858406  0.01252443  1
  O  O71  1  0.90017172  0.52858406  0.51252443  1
  O  O72  1  0.40017172  0.97141594  0.26252443  1
  O  O73  1  0.40017172  0.97141594  0.76252443  1
  O  O74  1  0.90017172  0.97141594  0.26252443  1
  O  O75  1  0.90017172  0.97141594  0.76252443  1
  O  O76  1  0.09982828  0.47141594  0.48747557  1
  O  O77  1  0.09982828  0.47141594  0.98747557  1
  O  O78  1  0.59982828  0.47141594  0.48747557  1
  O  O79  1  0.59982828  0.47141594  0.98747557  1
  O  O80  1  0.40595494  0.19986930  0.24112153  1
  O  O81  1  0.40595494  0.19986930  0.74112153  1
  O  O82  1  0.90595494  0.19986930  0.24112153  1
  O  O83  1  0.90595494  0.19986930  0.74112153  1
  O  O84  1  0.09404506  0.69986930  0.00887847  1
  O  O85  1  0.09404506  0.69986930  0.50887847  1
  O  O86  1  0.59404506  0.69986930  0.00887847  1
  O  O87  1  0.59404506  0.69986930  0.50887847  1
  O  O88  1  0.09404506  0.80013070  0.25887847  1
  O  O89  1  0.09404506  0.80013070  0.75887847  1
  O  O90  1  0.59404506  0.80013070  0.25887847  1
  O  O91  1  0.59404506  0.80013070  0.75887847  1
  O  O92  1  0.40595494  0.30013070  0.49112153  1
  O  O93  1  0.40595494  0.30013070  0.99112153  1
  O  O94  1  0.90595494  0.30013070  0.49112153  1
  O  O95  1  0.90595494  0.30013070  0.99112153  1
  O  O96  1  0.09807813  0.26642066  0.39269390  1
  O  O97  1  0.09807813  0.26642066  0.89269390  1
  O  O98  1  0.59807813  0.26642066  0.39269390  1
  O  O99  1  0.59807813  0.26642066  0.89269390  1
  O  O100  1  0.40192187  0.76642066  0.35730610  1
  O  O101  1  0.40192187  0.76642066  0.85730610  1
  O  O102  1  0.90192187  0.76642066  0.35730610  1
  O  O103  1  0.90192187  0.76642066  0.85730610  1
  O  O104  1  0.40192187  0.73357934  0.10730610  1
  O  O105  1  0.40192187  0.73357934  0.60730610  1
  O  O106  1  0.90192187  0.73357934  0.10730610  1
  O  O107  1  0.90192187  0.73357934  0.60730610  1
  O  O108  1  0.09807813  0.23357934  0.14269390  1
  O  O109  1  0.09807813  0.23357934  0.64269390  1
  O  O110  1  0.59807813  0.23357934  0.14269390  1
  O  O111  1  0.59807813  0.23357934  0.64269390  1
