# generated using pymatgen
data_CsTa(BO3)2
_symmetry_space_group_name_H-M   'P 1'
_cell_length_a   15.23757761
_cell_length_b   15.61008188
_cell_length_c   19.67749438
_cell_angle_alpha   90.00000000
_cell_angle_beta   90.00000000
_cell_angle_gamma   90.00000000
_symmetry_Int_Tables_number   1
_chemical_formula_structural   CsTa(BO3)2
_chemical_formula_sum   'Cs32 Ta32 B64 O192'
_cell_volume   4680.48554953
_cell_formula_units_Z   32
loop_
 _symmetry_equiv_pos_site_id
 _symmetry_equiv_pos_as_xyz
  1  'x, y, z'
loop_
 _atom_site_type_symbol
 _atom_site_label
 _atom_site_symmetry_multiplicity
 _atom_site_fract_x
 _atom_site_fract_y
 _atom_site_fract_z
 _atom_site_occupancy
  Cs  Cs0  1  0.00000000  0.12093582  0.30481847  1
  Cs  Cs1  1  0.00000000  0.12093582  0.80481847  1
  Cs  Cs2  1  0.00000000  0.37093582  0.30481847  1
  Cs  Cs3  1  0.00000000  0.37093582  0.80481847  1
  Cs  Cs4  1  0.00000000  0.62093582  0.30481847  1
  Cs  Cs5  1  0.00000000  0.62093582  0.80481847  1
  Cs  Cs6  1  0.00000000  0.87093582  0.30481847  1
  Cs  Cs7  1  0.00000000  0.87093582  0.80481847  1
  Cs  Cs8  1  0.50000000  0.12093582  0.30481847  1
  Cs  Cs9  1  0.50000000  0.12093582  0.80481847  1
  Cs  Cs10  1  0.50000000  0.37093582  0.30481847  1
  Cs  Cs11  1  0.50000000  0.37093582  0.80481847  1
  Cs  Cs12  1  0.50000000  0.62093582  0.30481847  1
  Cs  Cs13  1  0.50000000  0.62093582  0.80481847  1
  Cs  Cs14  1  0.50000000  0.87093582  0.30481847  1
  Cs  Cs15  1  0.50000000  0.87093582  0.80481847  1
  Cs  Cs16  1  0.25000000  0.12906418  0.05481847  1
  Cs  Cs17  1  0.25000000  0.12906418  0.55481847  1
  Cs  Cs18  1  0.25000000  0.37906418  0.05481847  1
  Cs  Cs19  1  0.25000000  0.37906418  0.55481847  1
  Cs  Cs20  1  0.25000000  0.62906418  0.05481847  1
  Cs  Cs21  1  0.25000000  0.62906418  0.55481847  1
  Cs  Cs22  1  0.25000000  0.87906418  0.05481847  1
  Cs  Cs23  1  0.25000000  0.87906418  0.55481847  1
  Cs  Cs24  1  0.75000000  0.12906418  0.05481847  1
  Cs  Cs25  1  0.75000000  0.12906418  0.55481847  1
  Cs  Cs26  1  0.75000000  0.37906418  0.05481847  1
  Cs  Cs27  1  0.75000000  0.37906418  0.55481847  1
  Cs  Cs28  1  0.75000000  0.62906418  0.05481847  1
  Cs  Cs29  1  0.75000000  0.62906418  0.55481847  1
  Cs  Cs30  1  0.75000000  0.87906418  0.05481847  1
  Cs  Cs31  1  0.75000000  0.87906418  0.55481847  1
  Ta  Ta32  1  0.00000000  0.01378670  0.11344752  1
  Ta  Ta33  1  0.00000000  0.01378670  0.61344752  1
  Ta  Ta34  1  0.00000000  0.26378670  0.11344752  1
  Ta  Ta35  1  0.00000000  0.26378670  0.61344752  1
  Ta  Ta36  1  0.00000000  0.51378670  0.11344752  1
  Ta  Ta37  1  0.00000000  0.51378670  0.61344752  1
  Ta  Ta38  1  0.00000000  0.76378670  0.11344752  1
  Ta  Ta39  1  0.00000000  0.76378670  0.61344752  1
  Ta  Ta40  1  0.50000000  0.01378670  0.11344752  1
  Ta  Ta41  1  0.50000000  0.01378670  0.61344752  1
  Ta  Ta42  1  0.50000000  0.26378670  0.11344752  1
  Ta  Ta43  1  0.50000000  0.26378670  0.61344752  1
  Ta  Ta44  1  0.50000000  0.51378670  0.11344752  1
  Ta  Ta45  1  0.50000000  0.51378670  0.61344752  1
  Ta  Ta46  1  0.50000000  0.76378670  0.11344752  1
  Ta  Ta47  1  0.50000000  0.76378670  0.61344752  1
  Ta  Ta48  1  0.25000000  0.23621330  0.36344752  1
  Ta  Ta49  1  0.25000000  0.23621330  0.86344752  1
  Ta  Ta50  1  0.25000000  0.48621330  0.36344752  1
  Ta  Ta51  1  0.25000000  0.48621330  0.86344752  1
  Ta  Ta52  1  0.25000000  0.73621330  0.36344752  1
  Ta  Ta53  1  0.25000000  0.73621330  0.86344752  1
  Ta  Ta54  1  0.25000000  0.98621330  0.36344752  1
  Ta  Ta55  1  0.25000000  0.98621330  0.86344752  1
  Ta  Ta56  1  0.75000000  0.23621330  0.36344752  1
  Ta  Ta57  1  0.75000000  0.23621330  0.86344752  1
  Ta  Ta58  1  0.75000000  0.48621330  0.36344752  1
  Ta  Ta59  1  0.75000000  0.48621330  0.86344752  1
  Ta  Ta60  1  0.75000000  0.73621330  0.36344752  1
  Ta  Ta61  1  0.75000000  0.73621330  0.86344752  1
  Ta  Ta62  1  0.75000000  0.98621330  0.36344752  1
  Ta  Ta63  1  0.75000000  0.98621330  0.86344752  1
  B  B64  1  0.16871652  0.00146305  0.21885578  1
  B  B65  1  0.16871652  0.00146305  0.71885578  1
  B  B66  1  0.16871652  0.25146305  0.21885578  1
  B  B67  1  0.16871652  0.25146305  0.71885578  1
  B  B68  1  0.16871652  0.50146305  0.21885578  1
  B  B69  1  0.16871652  0.50146305  0.71885578  1
  B  B70  1  0.16871652  0.75146305  0.21885578  1
  B  B71  1  0.16871652  0.75146305  0.71885578  1
  B  B72  1  0.66871652  0.00146305  0.21885578  1
  B  B73  1  0.66871652  0.00146305  0.71885578  1
  B  B74  1  0.66871652  0.25146305  0.21885578  1
  B  B75  1  0.66871652  0.25146305  0.71885578  1
  B  B76  1  0.66871652  0.50146305  0.21885578  1
  B  B77  1  0.66871652  0.50146305  0.71885578  1
  B  B78  1  0.66871652  0.75146305  0.21885578  1
  B  B79  1  0.66871652  0.75146305  0.71885578  1
  B  B80  1  0.08128348  0.24853695  0.46885578  1
  B  B81  1  0.08128348  0.24853695  0.96885578  1
  B  B82  1  0.08128348  0.49853695  0.46885578  1
  B  B83  1  0.08128348  0.49853695  0.96885578  1
  B  B84  1  0.08128348  0.74853695  0.46885578  1
  B  B85  1  0.08128348  0.74853695  0.96885578  1
  B  B86  1  0.08128348  0.99853695  0.46885578  1
  B  B87  1  0.08128348  0.99853695  0.96885578  1
  B  B88  1  0.58128348  0.24853695  0.46885578  1
  B  B89  1  0.58128348  0.24853695  0.96885578  1
  B  B90  1  0.58128348  0.49853695  0.46885578  1
  B  B91  1  0.58128348  0.49853695  0.96885578  1
  B  B92  1  0.58128348  0.74853695  0.46885578  1
  B  B93  1  0.58128348  0.74853695  0.96885578  1
  B  B94  1  0.58128348  0.99853695  0.46885578  1
  B  B95  1  0.58128348  0.99853695  0.96885578  1
  B  B96  1  0.41871652  0.24853695  0.46885578  1
  B  B97  1  0.41871652  0.24853695  0.96885578  1
  B  B98  1  0.41871652  0.49853695  0.46885578  1
  B  B99  1  0.41871652  0.49853695  0.96885578  1
  B  B100  1  0.41871652  0.74853695  0.46885578  1
  B  B101  1  0.41871652  0.74853695  0.96885578  1
  B  B102  1  0.41871652  0.99853695  0.46885578  1
  B  B103  1  0.41871652  0.99853695  0.96885578  1
  B  B104  1  0.91871652  0.24853695  0.46885578  1
  B  B105  1  0.91871652  0.24853695  0.96885578  1
  B  B106  1  0.91871652  0.49853695  0.46885578  1
  B  B107  1  0.91871652  0.49853695  0.96885578  1
  B  B108  1  0.91871652  0.74853695  0.46885578  1
  B  B109  1  0.91871652  0.74853695  0.96885578  1
  B  B110  1  0.91871652  0.99853695  0.46885578  1
  B  B111  1  0.91871652  0.99853695  0.96885578  1
  B  B112  1  0.33128348  0.00146305  0.21885578  1
  B  B113  1  0.33128348  0.00146305  0.71885578  1
  B  B114  1  0.33128348  0.25146305  0.21885578  1
  B  B115  1  0.33128348  0.25146305  0.71885578  1
  B  B116  1  0.33128348  0.50146305  0.21885578  1
  B  B117  1  0.33128348  0.50146305  0.71885578  1
  B  B118  1  0.33128348  0.75146305  0.21885578  1
  B  B119  1  0.33128348  0.75146305  0.71885578  1
  B  B120  1  0.83128348  0.00146305  0.21885578  1
  B  B121  1  0.83128348  0.00146305  0.71885578  1
  B  B122  1  0.83128348  0.25146305  0.21885578  1
  B  B123  1  0.83128348  0.25146305  0.71885578  1
  B  B124  1  0.83128348  0.50146305  0.21885578  1
  B  B125  1  0.83128348  0.50146305  0.71885578  1
  B  B126  1  0.83128348  0.75146305  0.21885578  1
  B  B127  1  0.83128348  0.75146305  0.71885578  1
  O  O128  1  0.09548254  0.00985588  0.18021585  1
  O  O129  1  0.09548254  0.00985588  0.68021585  1
  O  O130  1  0.09548254  0.25985588  0.18021585  1
  O  O131  1  0.09548254  0.25985588  0.68021585  1
  O  O132  1  0.09548254  0.50985588  0.18021585  1
  O  O133  1  0.09548254  0.50985588  0.68021585  1
  O  O134  1  0.09548254  0.75985588  0.18021585  1
  O  O135  1  0.09548254  0.75985588  0.68021585  1
  O  O136  1  0.59548254  0.00985588  0.18021585  1
  O  O137  1  0.59548254  0.00985588  0.68021585  1
  O  O138  1  0.59548254  0.25985588  0.18021585  1
  O  O139  1  0.59548254  0.25985588  0.68021585  1
  O  O140  1  0.59548254  0.50985588  0.18021585  1
  O  O141  1  0.59548254  0.50985588  0.68021585  1
  O  O142  1  0.59548254  0.75985588  0.18021585  1
  O  O143  1  0.59548254  0.75985588  0.68021585  1
  O  O144  1  0.15451746  0.24014412  0.43021585  1
  O  O145  1  0.15451746  0.24014412  0.93021585  1
  O  O146  1  0.15451746  0.49014412  0.43021585  1
  O  O147  1  0.15451746  0.49014412  0.93021585  1
  O  O148  1  0.15451746  0.74014412  0.43021585  1
  O  O149  1  0.15451746  0.74014412  0.93021585  1
  O  O150  1  0.15451746  0.99014412  0.43021585  1
  O  O151  1  0.15451746  0.99014412  0.93021585  1
  O  O152  1  0.65451746  0.24014412  0.43021585  1
  O  O153  1  0.65451746  0.24014412  0.93021585  1
  O  O154  1  0.65451746  0.49014412  0.43021585  1
  O  O155  1  0.65451746  0.49014412  0.93021585  1
  O  O156  1  0.65451746  0.74014412  0.43021585  1
  O  O157  1  0.65451746  0.74014412  0.93021585  1
  O  O158  1  0.65451746  0.99014412  0.43021585  1
  O  O159  1  0.65451746  0.99014412  0.93021585  1
  O  O160  1  0.34548254  0.24014412  0.43021585  1
  O  O161  1  0.34548254  0.24014412  0.93021585  1
  O  O162  1  0.34548254  0.49014412  0.43021585  1
  O  O163  1  0.34548254  0.49014412  0.93021585  1
  O  O164  1  0.34548254  0.74014412  0.43021585  1
  O  O165  1  0.34548254  0.74014412  0.93021585  1
  O  O166  1  0.34548254  0.99014412  0.43021585  1
  O  O167  1  0.34548254  0.99014412  0.93021585  1
  O  O168  1  0.84548254  0.24014412  0.43021585  1
  O  O169  1  0.84548254  0.24014412  0.93021585  1
  O  O170  1  0.84548254  0.49014412  0.43021585  1
  O  O171  1  0.84548254  0.49014412  0.93021585  1
  O  O172  1  0.84548254  0.74014412  0.43021585  1
  O  O173  1  0.84548254  0.74014412  0.93021585  1
  O  O174  1  0.84548254  0.99014412  0.43021585  1
  O  O175  1  0.84548254  0.99014412  0.93021585  1
  O  O176  1  0.40451746  0.00985588  0.18021585  1
  O  O177  1  0.40451746  0.00985588  0.68021585  1
  O  O178  1  0.40451746  0.25985588  0.18021585  1
  O  O179  1  0.40451746  0.25985588  0.68021585  1
  O  O180  1  0.40451746  0.50985588  0.18021585  1
  O  O181  1  0.40451746  0.50985588  0.68021585  1
  O  O182  1  0.40451746  0.75985588  0.18021585  1
  O  O183  1  0.40451746  0.75985588  0.68021585  1
  O  O184  1  0.90451746  0.00985588  0.18021585  1
  O  O185  1  0.90451746  0.00985588  0.68021585  1
  O  O186  1  0.90451746  0.25985588  0.18021585  1
  O  O187  1  0.90451746  0.25985588  0.68021585  1
  O  O188  1  0.90451746  0.50985588  0.18021585  1
  O  O189  1  0.90451746  0.50985588  0.68021585  1
  O  O190  1  0.90451746  0.75985588  0.18021585  1
  O  O191  1  0.90451746  0.75985588  0.68021585  1
  O  O192  1  0.41213807  0.00880577  0.03727333  1
  O  O193  1  0.41213807  0.00880577  0.53727333  1
  O  O194  1  0.41213807  0.25880577  0.03727333  1
  O  O195  1  0.41213807  0.25880577  0.53727333  1
  O  O196  1  0.41213807  0.50880577  0.03727333  1
  O  O197  1  0.41213807  0.50880577  0.53727333  1
  O  O198  1  0.41213807  0.75880577  0.03727333  1
  O  O199  1  0.41213807  0.75880577  0.53727333  1
  O  O200  1  0.91213807  0.00880577  0.03727333  1
  O  O201  1  0.91213807  0.00880577  0.53727333  1
  O  O202  1  0.91213807  0.25880577  0.03727333  1
  O  O203  1  0.91213807  0.25880577  0.53727333  1
  O  O204  1  0.91213807  0.50880577  0.03727333  1
  O  O205  1  0.91213807  0.50880577  0.53727333  1
  O  O206  1  0.91213807  0.75880577  0.03727333  1
  O  O207  1  0.91213807  0.75880577  0.53727333  1
  O  O208  1  0.33786193  0.24119423  0.28727333  1
  O  O209  1  0.33786193  0.24119423  0.78727333  1
  O  O210  1  0.33786193  0.49119423  0.28727333  1
  O  O211  1  0.33786193  0.49119423  0.78727333  1
  O  O212  1  0.33786193  0.74119423  0.28727333  1
  O  O213  1  0.33786193  0.74119423  0.78727333  1
  O  O214  1  0.33786193  0.99119423  0.28727333  1
  O  O215  1  0.33786193  0.99119423  0.78727333  1
  O  O216  1  0.83786193  0.24119423  0.28727333  1
  O  O217  1  0.83786193  0.24119423  0.78727333  1
  O  O218  1  0.83786193  0.49119423  0.28727333  1
  O  O219  1  0.83786193  0.49119423  0.78727333  1
  O  O220  1  0.83786193  0.74119423  0.28727333  1
  O  O221  1  0.83786193  0.74119423  0.78727333  1
  O  O222  1  0.83786193  0.99119423  0.28727333  1
  O  O223  1  0.83786193  0.99119423  0.78727333  1
  O  O224  1  0.16213807  0.24119423  0.28727333  1
  O  O225  1  0.16213807  0.24119423  0.78727333  1
  O  O226  1  0.16213807  0.49119423  0.28727333  1
  O  O227  1  0.16213807  0.49119423  0.78727333  1
  O  O228  1  0.16213807  0.74119423  0.28727333  1
  O  O229  1  0.16213807  0.74119423  0.78727333  1
  O  O230  1  0.16213807  0.99119423  0.28727333  1
  O  O231  1  0.16213807  0.99119423  0.78727333  1
  O  O232  1  0.66213807  0.24119423  0.28727333  1
  O  O233  1  0.66213807  0.24119423  0.78727333  1
  O  O234  1  0.66213807  0.49119423  0.28727333  1
  O  O235  1  0.66213807  0.49119423  0.78727333  1
  O  O236  1  0.66213807  0.74119423  0.28727333  1
  O  O237  1  0.66213807  0.74119423  0.78727333  1
  O  O238  1  0.66213807  0.99119423  0.28727333  1
  O  O239  1  0.66213807  0.99119423  0.78727333  1
  O  O240  1  0.08786193  0.00880577  0.03727333  1
  O  O241  1  0.08786193  0.00880577  0.53727333  1
  O  O242  1  0.08786193  0.25880577  0.03727333  1
  O  O243  1  0.08786193  0.25880577  0.53727333  1
  O  O244  1  0.08786193  0.50880577  0.03727333  1
  O  O245  1  0.08786193  0.50880577  0.53727333  1
  O  O246  1  0.08786193  0.75880577  0.03727333  1
  O  O247  1  0.08786193  0.75880577  0.53727333  1
  O  O248  1  0.58786193  0.00880577  0.03727333  1
  O  O249  1  0.58786193  0.00880577  0.53727333  1
  O  O250  1  0.58786193  0.25880577  0.03727333  1
  O  O251  1  0.58786193  0.25880577  0.53727333  1
  O  O252  1  0.58786193  0.50880577  0.03727333  1
  O  O253  1  0.58786193  0.50880577  0.53727333  1
  O  O254  1  0.58786193  0.75880577  0.03727333  1
  O  O255  1  0.58786193  0.75880577  0.53727333  1
  O  O256  1  0.00000000  0.13523725  0.11521461  1
  O  O257  1  0.00000000  0.13523725  0.61521461  1
  O  O258  1  0.00000000  0.38523725  0.11521461  1
  O  O259  1  0.00000000  0.38523725  0.61521461  1
  O  O260  1  0.00000000  0.63523725  0.11521461  1
  O  O261  1  0.00000000  0.63523725  0.61521461  1
  O  O262  1  0.00000000  0.88523725  0.11521461  1
  O  O263  1  0.00000000  0.88523725  0.61521461  1
  O  O264  1  0.50000000  0.13523725  0.11521461  1
  O  O265  1  0.50000000  0.13523725  0.61521461  1
  O  O266  1  0.50000000  0.38523725  0.11521461  1
  O  O267  1  0.50000000  0.38523725  0.61521461  1
  O  O268  1  0.50000000  0.63523725  0.11521461  1
  O  O269  1  0.50000000  0.63523725  0.61521461  1
  O  O270  1  0.50000000  0.88523725  0.11521461  1
  O  O271  1  0.50000000  0.88523725  0.61521461  1
  O  O272  1  0.25000000  0.11476275  0.36521461  1
  O  O273  1  0.25000000  0.11476275  0.86521461  1
  O  O274  1  0.25000000  0.36476275  0.36521461  1
  O  O275  1  0.25000000  0.36476275  0.86521461  1
  O  O276  1  0.25000000  0.61476275  0.36521461  1
  O  O277  1  0.25000000  0.61476275  0.86521461  1
  O  O278  1  0.25000000  0.86476275  0.36521461  1
  O  O279  1  0.25000000  0.86476275  0.86521461  1
  O  O280  1  0.75000000  0.11476275  0.36521461  1
  O  O281  1  0.75000000  0.11476275  0.86521461  1
  O  O282  1  0.75000000  0.36476275  0.36521461  1
  O  O283  1  0.75000000  0.36476275  0.86521461  1
  O  O284  1  0.75000000  0.61476275  0.36521461  1
  O  O285  1  0.75000000  0.61476275  0.86521461  1
  O  O286  1  0.75000000  0.86476275  0.36521461  1
  O  O287  1  0.75000000  0.86476275  0.86521461  1
  O  O288  1  0.00000000  0.24545769  0.43542898  1
  O  O289  1  0.00000000  0.24545769  0.93542898  1
  O  O290  1  0.00000000  0.49545769  0.43542898  1
  O  O291  1  0.00000000  0.49545769  0.93542898  1
  O  O292  1  0.00000000  0.74545769  0.43542898  1
  O  O293  1  0.00000000  0.74545769  0.93542898  1
  O  O294  1  0.00000000  0.99545769  0.43542898  1
  O  O295  1  0.00000000  0.99545769  0.93542898  1
  O  O296  1  0.50000000  0.24545769  0.43542898  1
  O  O297  1  0.50000000  0.24545769  0.93542898  1
  O  O298  1  0.50000000  0.49545769  0.43542898  1
  O  O299  1  0.50000000  0.49545769  0.93542898  1
  O  O300  1  0.50000000  0.74545769  0.43542898  1
  O  O301  1  0.50000000  0.74545769  0.93542898  1
  O  O302  1  0.50000000  0.99545769  0.43542898  1
  O  O303  1  0.50000000  0.99545769  0.93542898  1
  O  O304  1  0.25000000  0.00454231  0.18542898  1
  O  O305  1  0.25000000  0.00454231  0.68542898  1
  O  O306  1  0.25000000  0.25454231  0.18542898  1
  O  O307  1  0.25000000  0.25454231  0.68542898  1
  O  O308  1  0.25000000  0.50454231  0.18542898  1
  O  O309  1  0.25000000  0.50454231  0.68542898  1
  O  O310  1  0.25000000  0.75454231  0.18542898  1
  O  O311  1  0.25000000  0.75454231  0.68542898  1
  O  O312  1  0.75000000  0.00454231  0.18542898  1
  O  O313  1  0.75000000  0.00454231  0.68542898  1
  O  O314  1  0.75000000  0.25454231  0.18542898  1
  O  O315  1  0.75000000  0.25454231  0.68542898  1
  O  O316  1  0.75000000  0.50454231  0.18542898  1
  O  O317  1  0.75000000  0.50454231  0.68542898  1
  O  O318  1  0.75000000  0.75454231  0.18542898  1
  O  O319  1  0.75000000  0.75454231  0.68542898  1
