# generated using pymatgen
data_Ca3(BO3)2
_symmetry_space_group_name_H-M   'P 1'
_cell_length_a   8.59665746
_cell_length_b   8.59665746
_cell_length_c   11.65784389
_cell_angle_alpha   90.00000000
_cell_angle_beta   90.00000000
_cell_angle_gamma   120.00000000
_symmetry_Int_Tables_number   1
_chemical_formula_structural   Ca3(BO3)2
_chemical_formula_sum   'Ca18 B12 O36'
_cell_volume   746.11902114
_cell_formula_units_Z   6
loop_
 _symmetry_equiv_pos_site_id
 _symmetry_equiv_pos_as_xyz
  1  'x, y, z'
loop_
 _atom_site_type_symbol
 _atom_site_label
 _atom_site_symmetry_multiplicity
 _atom_site_fract_x
 _atom_site_fract_y
 _atom_site_fract_z
 _atom_site_occupancy
  Ca  Ca0  1  -0.30778584  -0.33333333  0.41666667  1
  Ca  Ca1  1  0.35888082  -0.00000000  0.75000000  1
  Ca  Ca2  1  0.02554749  0.33333333  1.08333333  1
  Ca  Ca3  1  0.33333333  0.02554749  0.41666667  1
  Ca  Ca4  1  1.00000000  0.35888082  0.75000000  1
  Ca  Ca5  1  0.66666667  0.69221416  1.08333333  1
  Ca  Ca6  1  -0.02554749  0.30778584  0.41666667  1
  Ca  Ca7  1  0.64111918  0.64111918  0.75000000  1
  Ca  Ca8  1  0.30778584  0.97445251  1.08333333  1
  Ca  Ca9  1  0.30778584  0.33333333  0.58333333  1
  Ca  Ca10  1  0.97445251  0.66666667  0.91666667  1
  Ca  Ca11  1  0.64111918  1.00000000  1.25000000  1
  Ca  Ca12  1  -0.33333333  -0.02554749  0.58333333  1
  Ca  Ca13  1  0.33333333  0.30778584  0.91666667  1
  Ca  Ca14  1  -0.00000000  0.64111918  1.25000000  1
  Ca  Ca15  1  0.02554749  -0.30778584  0.58333333  1
  Ca  Ca16  1  0.69221416  0.02554749  0.91666667  1
  Ca  Ca17  1  0.35888082  0.35888082  1.25000000  1
  B  B18  1  -0.00000000  0.00000000  0.38292504  1
  B  B19  1  0.66666667  0.33333333  0.71625837  1
  B  B20  1  0.33333333  0.66666667  1.04959171  1
  B  B21  1  0.00000000  -0.00000000  0.61707496  1
  B  B22  1  0.66666667  0.33333333  0.95040829  1
  B  B23  1  0.33333333  0.66666667  1.28374163  1
  B  B24  1  0.00000000  0.00000000  0.88292504  1
  B  B25  1  0.66666667  0.33333333  1.21625837  1
  B  B26  1  0.33333333  0.66666667  1.54959171  1
  B  B27  1  -0.00000000  -0.00000000  0.11707496  1
  B  B28  1  0.66666667  0.33333333  0.45040829  1
  B  B29  1  0.33333333  0.66666667  0.78374163  1
  O  O30  1  0.34664047  -0.16563585  0.55189610  1
  O  O31  1  1.01330713  0.16769749  0.88522943  1
  O  O32  1  0.67997380  0.50103082  1.21856276  1
  O  O33  1  0.16563585  0.51227631  0.55189610  1
  O  O34  1  0.83230251  0.84560965  0.88522943  1
  O  O35  1  0.49896918  1.17894298  1.21856276  1
  O  O36  1  -0.51227631  -0.34664047  0.55189610  1
  O  O37  1  0.15439035  -0.01330713  0.88522943  1
  O  O38  1  -0.17894298  0.32002620  1.21856276  1
  O  O39  1  0.16769749  0.01330713  0.61477057  1
  O  O40  1  0.83436415  0.34664047  0.94810390  1
  O  O41  1  0.50103082  0.67997380  1.28143724  1
  O  O42  1  -0.15439035  -0.16769749  0.61477057  1
  O  O43  1  0.51227631  0.16563585  0.94810390  1
  O  O44  1  0.17894298  0.49896918  1.28143724  1
  O  O45  1  -0.01330713  0.15439035  0.61477057  1
  O  O46  1  0.65335953  0.48772369  0.94810390  1
  O  O47  1  0.32002620  0.82105702  1.28143724  1
  O  O48  1  -0.16563585  -0.51227631  0.44810390  1
  O  O49  1  0.50103082  -0.17894298  0.78143724  1
  O  O50  1  0.16769749  0.15439035  1.11477057  1
  O  O51  1  -0.34664047  0.16563585  0.44810390  1
  O  O52  1  0.32002620  0.49896918  0.78143724  1
  O  O53  1  -0.01330713  0.83230251  1.11477057  1
  O  O54  1  0.51227631  0.34664047  0.44810390  1
  O  O55  1  1.17894298  0.67997380  0.78143724  1
  O  O56  1  0.84560965  1.01330713  1.11477057  1
  O  O57  1  0.15439035  0.16769749  0.38522943  1
  O  O58  1  0.82105702  0.50103082  0.71856276  1
  O  O59  1  0.48772369  0.83436415  1.05189610  1
  O  O60  1  0.01330713  -0.15439035  0.38522943  1
  O  O61  1  0.67997380  0.17894298  0.71856276  1
  O  O62  1  0.34664047  0.51227631  1.05189610  1
  O  O63  1  -0.16769749  -0.01330713  0.38522943  1
  O  O64  1  0.49896918  0.32002620  0.71856276  1
  O  O65  1  0.16563585  0.65335953  1.05189610  1
