# generated using pymatgen
data_Rb2PbO3
_symmetry_space_group_name_H-M   'P 1'
_cell_length_a   18.23254048
_cell_length_b   21.82687230
_cell_length_c   21.97414372
_cell_angle_alpha   90.00000000
_cell_angle_beta   90.00000000
_cell_angle_gamma   90.00000000
_symmetry_Int_Tables_number   1
_chemical_formula_structural   Rb2PbO3
_chemical_formula_sum   'Rb144 Pb72 O216'
_cell_volume   8744.81557275
_cell_formula_units_Z   72
loop_
 _symmetry_equiv_pos_site_id
 _symmetry_equiv_pos_as_xyz
  1  'x, y, z'
loop_
 _atom_site_type_symbol
 _atom_site_label
 _atom_site_symmetry_multiplicity
 _atom_site_fract_x
 _atom_site_fract_y
 _atom_site_fract_z
 _atom_site_occupancy
  Rb  Rb0  1  0.25565834  0.45662486  0.13032228  1
  Rb  Rb1  1  0.25565834  0.45662486  0.46365562  1
  Rb  Rb2  1  0.25565834  0.45662486  0.79698895  1
  Rb  Rb3  1  0.25565834  0.95662486  0.13032228  1
  Rb  Rb4  1  0.25565834  0.95662486  0.46365562  1
  Rb  Rb5  1  0.25565834  0.95662486  0.79698895  1
  Rb  Rb6  1  0.58899168  0.45662486  0.13032228  1
  Rb  Rb7  1  0.58899168  0.45662486  0.46365562  1
  Rb  Rb8  1  0.58899168  0.45662486  0.79698895  1
  Rb  Rb9  1  0.58899168  0.95662486  0.13032228  1
  Rb  Rb10  1  0.58899168  0.95662486  0.46365562  1
  Rb  Rb11  1  0.58899168  0.95662486  0.79698895  1
  Rb  Rb12  1  0.92232501  0.45662486  0.13032228  1
  Rb  Rb13  1  0.92232501  0.45662486  0.46365562  1
  Rb  Rb14  1  0.92232501  0.45662486  0.79698895  1
  Rb  Rb15  1  0.92232501  0.95662486  0.13032228  1
  Rb  Rb16  1  0.92232501  0.95662486  0.46365562  1
  Rb  Rb17  1  0.92232501  0.95662486  0.79698895  1
  Rb  Rb18  1  0.24434166  0.04337514  0.29698895  1
  Rb  Rb19  1  0.24434166  0.04337514  0.63032228  1
  Rb  Rb20  1  0.24434166  0.04337514  0.96365562  1
  Rb  Rb21  1  0.24434166  0.54337514  0.29698895  1
  Rb  Rb22  1  0.24434166  0.54337514  0.63032228  1
  Rb  Rb23  1  0.24434166  0.54337514  0.96365562  1
  Rb  Rb24  1  0.57767499  0.04337514  0.29698895  1
  Rb  Rb25  1  0.57767499  0.04337514  0.63032228  1
  Rb  Rb26  1  0.57767499  0.04337514  0.96365562  1
  Rb  Rb27  1  0.57767499  0.54337514  0.29698895  1
  Rb  Rb28  1  0.57767499  0.54337514  0.63032228  1
  Rb  Rb29  1  0.57767499  0.54337514  0.96365562  1
  Rb  Rb30  1  0.91100832  0.04337514  0.29698895  1
  Rb  Rb31  1  0.91100832  0.04337514  0.63032228  1
  Rb  Rb32  1  0.91100832  0.04337514  0.96365562  1
  Rb  Rb33  1  0.91100832  0.54337514  0.29698895  1
  Rb  Rb34  1  0.91100832  0.54337514  0.63032228  1
  Rb  Rb35  1  0.91100832  0.54337514  0.96365562  1
  Rb  Rb36  1  0.08899168  0.45662486  0.03634438  1
  Rb  Rb37  1  0.08899168  0.45662486  0.36967772  1
  Rb  Rb38  1  0.08899168  0.45662486  0.70301105  1
  Rb  Rb39  1  0.08899168  0.95662486  0.03634438  1
  Rb  Rb40  1  0.08899168  0.95662486  0.36967772  1
  Rb  Rb41  1  0.08899168  0.95662486  0.70301105  1
  Rb  Rb42  1  0.42232501  0.45662486  0.03634438  1
  Rb  Rb43  1  0.42232501  0.45662486  0.36967772  1
  Rb  Rb44  1  0.42232501  0.45662486  0.70301105  1
  Rb  Rb45  1  0.42232501  0.95662486  0.03634438  1
  Rb  Rb46  1  0.42232501  0.95662486  0.36967772  1
  Rb  Rb47  1  0.42232501  0.95662486  0.70301105  1
  Rb  Rb48  1  0.75565834  0.45662486  0.03634438  1
  Rb  Rb49  1  0.75565834  0.45662486  0.36967772  1
  Rb  Rb50  1  0.75565834  0.45662486  0.70301105  1
  Rb  Rb51  1  0.75565834  0.95662486  0.03634438  1
  Rb  Rb52  1  0.75565834  0.95662486  0.36967772  1
  Rb  Rb53  1  0.75565834  0.95662486  0.70301105  1
  Rb  Rb54  1  0.08899168  0.29337514  0.03634438  1
  Rb  Rb55  1  0.08899168  0.29337514  0.36967772  1
  Rb  Rb56  1  0.08899168  0.29337514  0.70301105  1
  Rb  Rb57  1  0.08899168  0.79337514  0.03634438  1
  Rb  Rb58  1  0.08899168  0.79337514  0.36967772  1
  Rb  Rb59  1  0.08899168  0.79337514  0.70301105  1
  Rb  Rb60  1  0.42232501  0.29337514  0.03634438  1
  Rb  Rb61  1  0.42232501  0.29337514  0.36967772  1
  Rb  Rb62  1  0.42232501  0.29337514  0.70301105  1
  Rb  Rb63  1  0.42232501  0.79337514  0.03634438  1
  Rb  Rb64  1  0.42232501  0.79337514  0.36967772  1
  Rb  Rb65  1  0.42232501  0.79337514  0.70301105  1
  Rb  Rb66  1  0.75565834  0.29337514  0.03634438  1
  Rb  Rb67  1  0.75565834  0.29337514  0.36967772  1
  Rb  Rb68  1  0.75565834  0.29337514  0.70301105  1
  Rb  Rb69  1  0.75565834  0.79337514  0.03634438  1
  Rb  Rb70  1  0.75565834  0.79337514  0.36967772  1
  Rb  Rb71  1  0.75565834  0.79337514  0.70301105  1
  Rb  Rb72  1  0.07767499  0.20662486  0.20301105  1
  Rb  Rb73  1  0.07767499  0.20662486  0.53634438  1
  Rb  Rb74  1  0.07767499  0.20662486  0.86967772  1
  Rb  Rb75  1  0.07767499  0.70662486  0.20301105  1
  Rb  Rb76  1  0.07767499  0.70662486  0.53634438  1
  Rb  Rb77  1  0.07767499  0.70662486  0.86967772  1
  Rb  Rb78  1  0.41100832  0.20662486  0.20301105  1
  Rb  Rb79  1  0.41100832  0.20662486  0.53634438  1
  Rb  Rb80  1  0.41100832  0.20662486  0.86967772  1
  Rb  Rb81  1  0.41100832  0.70662486  0.20301105  1
  Rb  Rb82  1  0.41100832  0.70662486  0.53634438  1
  Rb  Rb83  1  0.41100832  0.70662486  0.86967772  1
  Rb  Rb84  1  0.74434166  0.20662486  0.20301105  1
  Rb  Rb85  1  0.74434166  0.20662486  0.53634438  1
  Rb  Rb86  1  0.74434166  0.20662486  0.86967772  1
  Rb  Rb87  1  0.74434166  0.70662486  0.20301105  1
  Rb  Rb88  1  0.74434166  0.70662486  0.53634438  1
  Rb  Rb89  1  0.74434166  0.70662486  0.86967772  1
  Rb  Rb90  1  0.24434166  0.20662486  0.29698895  1
  Rb  Rb91  1  0.24434166  0.20662486  0.63032228  1
  Rb  Rb92  1  0.24434166  0.20662486  0.96365562  1
  Rb  Rb93  1  0.24434166  0.70662486  0.29698895  1
  Rb  Rb94  1  0.24434166  0.70662486  0.63032228  1
  Rb  Rb95  1  0.24434166  0.70662486  0.96365562  1
  Rb  Rb96  1  0.57767499  0.20662486  0.29698895  1
  Rb  Rb97  1  0.57767499  0.20662486  0.63032228  1
  Rb  Rb98  1  0.57767499  0.20662486  0.96365562  1
  Rb  Rb99  1  0.57767499  0.70662486  0.29698895  1
  Rb  Rb100  1  0.57767499  0.70662486  0.63032228  1
  Rb  Rb101  1  0.57767499  0.70662486  0.96365562  1
  Rb  Rb102  1  0.91100832  0.20662486  0.29698895  1
  Rb  Rb103  1  0.91100832  0.20662486  0.63032228  1
  Rb  Rb104  1  0.91100832  0.20662486  0.96365562  1
  Rb  Rb105  1  0.91100832  0.70662486  0.29698895  1
  Rb  Rb106  1  0.91100832  0.70662486  0.63032228  1
  Rb  Rb107  1  0.91100832  0.70662486  0.96365562  1
  Rb  Rb108  1  0.07767499  0.04337514  0.20301105  1
  Rb  Rb109  1  0.07767499  0.04337514  0.53634438  1
  Rb  Rb110  1  0.07767499  0.04337514  0.86967772  1
  Rb  Rb111  1  0.07767499  0.54337514  0.20301105  1
  Rb  Rb112  1  0.07767499  0.54337514  0.53634438  1
  Rb  Rb113  1  0.07767499  0.54337514  0.86967772  1
  Rb  Rb114  1  0.41100832  0.04337514  0.20301105  1
  Rb  Rb115  1  0.41100832  0.04337514  0.53634438  1
  Rb  Rb116  1  0.41100832  0.04337514  0.86967772  1
  Rb  Rb117  1  0.41100832  0.54337514  0.20301105  1
  Rb  Rb118  1  0.41100832  0.54337514  0.53634438  1
  Rb  Rb119  1  0.41100832  0.54337514  0.86967772  1
  Rb  Rb120  1  0.74434166  0.04337514  0.20301105  1
  Rb  Rb121  1  0.74434166  0.04337514  0.53634438  1
  Rb  Rb122  1  0.74434166  0.04337514  0.86967772  1
  Rb  Rb123  1  0.74434166  0.54337514  0.20301105  1
  Rb  Rb124  1  0.74434166  0.54337514  0.53634438  1
  Rb  Rb125  1  0.74434166  0.54337514  0.86967772  1
  Rb  Rb126  1  0.25565834  0.29337514  0.13032228  1
  Rb  Rb127  1  0.25565834  0.29337514  0.46365562  1
  Rb  Rb128  1  0.25565834  0.29337514  0.79698895  1
  Rb  Rb129  1  0.25565834  0.79337514  0.13032228  1
  Rb  Rb130  1  0.25565834  0.79337514  0.46365562  1
  Rb  Rb131  1  0.25565834  0.79337514  0.79698895  1
  Rb  Rb132  1  0.58899168  0.29337514  0.13032228  1
  Rb  Rb133  1  0.58899168  0.29337514  0.46365562  1
  Rb  Rb134  1  0.58899168  0.29337514  0.79698895  1
  Rb  Rb135  1  0.58899168  0.79337514  0.13032228  1
  Rb  Rb136  1  0.58899168  0.79337514  0.46365562  1
  Rb  Rb137  1  0.58899168  0.79337514  0.79698895  1
  Rb  Rb138  1  0.92232501  0.29337514  0.13032228  1
  Rb  Rb139  1  0.92232501  0.29337514  0.46365562  1
  Rb  Rb140  1  0.92232501  0.29337514  0.79698895  1
  Rb  Rb141  1  0.92232501  0.79337514  0.13032228  1
  Rb  Rb142  1  0.92232501  0.79337514  0.46365562  1
  Rb  Rb143  1  0.92232501  0.79337514  0.79698895  1
  Pb  Pb144  1  0.08949562  0.12500000  0.05217788  1
  Pb  Pb145  1  0.08949562  0.12500000  0.38551121  1
  Pb  Pb146  1  0.08949562  0.12500000  0.71884454  1
  Pb  Pb147  1  0.08949562  0.62500000  0.05217788  1
  Pb  Pb148  1  0.08949562  0.62500000  0.38551121  1
  Pb  Pb149  1  0.08949562  0.62500000  0.71884454  1
  Pb  Pb150  1  0.42282896  0.12500000  0.05217788  1
  Pb  Pb151  1  0.42282896  0.12500000  0.38551121  1
  Pb  Pb152  1  0.42282896  0.12500000  0.71884454  1
  Pb  Pb153  1  0.42282896  0.62500000  0.05217788  1
  Pb  Pb154  1  0.42282896  0.62500000  0.38551121  1
  Pb  Pb155  1  0.42282896  0.62500000  0.71884454  1
  Pb  Pb156  1  0.75616229  0.12500000  0.05217788  1
  Pb  Pb157  1  0.75616229  0.12500000  0.38551121  1
  Pb  Pb158  1  0.75616229  0.12500000  0.71884454  1
  Pb  Pb159  1  0.75616229  0.62500000  0.05217788  1
  Pb  Pb160  1  0.75616229  0.62500000  0.38551121  1
  Pb  Pb161  1  0.75616229  0.62500000  0.71884454  1
  Pb  Pb162  1  0.24383771  0.37500000  0.28115546  1
  Pb  Pb163  1  0.24383771  0.37500000  0.61448879  1
  Pb  Pb164  1  0.24383771  0.37500000  0.94782212  1
  Pb  Pb165  1  0.24383771  0.87500000  0.28115546  1
  Pb  Pb166  1  0.24383771  0.87500000  0.61448879  1
  Pb  Pb167  1  0.24383771  0.87500000  0.94782212  1
  Pb  Pb168  1  0.57717104  0.37500000  0.28115546  1
  Pb  Pb169  1  0.57717104  0.37500000  0.61448879  1
  Pb  Pb170  1  0.57717104  0.37500000  0.94782212  1
  Pb  Pb171  1  0.57717104  0.87500000  0.28115546  1
  Pb  Pb172  1  0.57717104  0.87500000  0.61448879  1
  Pb  Pb173  1  0.57717104  0.87500000  0.94782212  1
  Pb  Pb174  1  0.91050438  0.37500000  0.28115546  1
  Pb  Pb175  1  0.91050438  0.37500000  0.61448879  1
  Pb  Pb176  1  0.91050438  0.37500000  0.94782212  1
  Pb  Pb177  1  0.91050438  0.87500000  0.28115546  1
  Pb  Pb178  1  0.91050438  0.87500000  0.61448879  1
  Pb  Pb179  1  0.91050438  0.87500000  0.94782212  1
  Pb  Pb180  1  0.25616229  0.12500000  0.11448879  1
  Pb  Pb181  1  0.25616229  0.12500000  0.44782212  1
  Pb  Pb182  1  0.25616229  0.12500000  0.78115546  1
  Pb  Pb183  1  0.25616229  0.62500000  0.11448879  1
  Pb  Pb184  1  0.25616229  0.62500000  0.44782212  1
  Pb  Pb185  1  0.25616229  0.62500000  0.78115546  1
  Pb  Pb186  1  0.58949562  0.12500000  0.11448879  1
  Pb  Pb187  1  0.58949562  0.12500000  0.44782212  1
  Pb  Pb188  1  0.58949562  0.12500000  0.78115546  1
  Pb  Pb189  1  0.58949562  0.62500000  0.11448879  1
  Pb  Pb190  1  0.58949562  0.62500000  0.44782212  1
  Pb  Pb191  1  0.58949562  0.62500000  0.78115546  1
  Pb  Pb192  1  0.92282896  0.12500000  0.11448879  1
  Pb  Pb193  1  0.92282896  0.12500000  0.44782212  1
  Pb  Pb194  1  0.92282896  0.12500000  0.78115546  1
  Pb  Pb195  1  0.92282896  0.62500000  0.11448879  1
  Pb  Pb196  1  0.92282896  0.62500000  0.44782212  1
  Pb  Pb197  1  0.92282896  0.62500000  0.78115546  1
  Pb  Pb198  1  0.07717104  0.37500000  0.21884454  1
  Pb  Pb199  1  0.07717104  0.37500000  0.55217788  1
  Pb  Pb200  1  0.07717104  0.37500000  0.88551121  1
  Pb  Pb201  1  0.07717104  0.87500000  0.21884454  1
  Pb  Pb202  1  0.07717104  0.87500000  0.55217788  1
  Pb  Pb203  1  0.07717104  0.87500000  0.88551121  1
  Pb  Pb204  1  0.41050438  0.37500000  0.21884454  1
  Pb  Pb205  1  0.41050438  0.37500000  0.55217788  1
  Pb  Pb206  1  0.41050438  0.37500000  0.88551121  1
  Pb  Pb207  1  0.41050438  0.87500000  0.21884454  1
  Pb  Pb208  1  0.41050438  0.87500000  0.55217788  1
  Pb  Pb209  1  0.41050438  0.87500000  0.88551121  1
  Pb  Pb210  1  0.74383771  0.37500000  0.21884454  1
  Pb  Pb211  1  0.74383771  0.37500000  0.55217788  1
  Pb  Pb212  1  0.74383771  0.37500000  0.88551121  1
  Pb  Pb213  1  0.74383771  0.87500000  0.21884454  1
  Pb  Pb214  1  0.74383771  0.87500000  0.55217788  1
  Pb  Pb215  1  0.74383771  0.87500000  0.88551121  1
  O  O216  1  0.00232126  0.19066750  0.07498076  1
  O  O217  1  0.00232126  0.19066750  0.40831409  1
  O  O218  1  0.00232126  0.19066750  0.74164743  1
  O  O219  1  0.00232126  0.69066750  0.07498076  1
  O  O220  1  0.00232126  0.69066750  0.40831409  1
  O  O221  1  0.00232126  0.69066750  0.74164743  1
  O  O222  1  0.33565459  0.19066750  0.07498076  1
  O  O223  1  0.33565459  0.19066750  0.40831409  1
  O  O224  1  0.33565459  0.19066750  0.74164743  1
  O  O225  1  0.33565459  0.69066750  0.07498076  1
  O  O226  1  0.33565459  0.69066750  0.40831409  1
  O  O227  1  0.33565459  0.69066750  0.74164743  1
  O  O228  1  0.66898793  0.19066750  0.07498076  1
  O  O229  1  0.66898793  0.19066750  0.40831409  1
  O  O230  1  0.66898793  0.19066750  0.74164743  1
  O  O231  1  0.66898793  0.69066750  0.07498076  1
  O  O232  1  0.66898793  0.69066750  0.40831409  1
  O  O233  1  0.66898793  0.69066750  0.74164743  1
  O  O234  1  0.04986529  0.37500000  0.12782533  1
  O  O235  1  0.04986529  0.37500000  0.46115867  1
  O  O236  1  0.04986529  0.37500000  0.79449200  1
  O  O237  1  0.04986529  0.87500000  0.12782533  1
  O  O238  1  0.04986529  0.87500000  0.46115867  1
  O  O239  1  0.04986529  0.87500000  0.79449200  1
  O  O240  1  0.38319863  0.37500000  0.12782533  1
  O  O241  1  0.38319863  0.37500000  0.46115867  1
  O  O242  1  0.38319863  0.37500000  0.79449200  1
  O  O243  1  0.38319863  0.87500000  0.12782533  1
  O  O244  1  0.38319863  0.87500000  0.46115867  1
  O  O245  1  0.38319863  0.87500000  0.79449200  1
  O  O246  1  0.71653196  0.37500000  0.12782533  1
  O  O247  1  0.71653196  0.37500000  0.46115867  1
  O  O248  1  0.71653196  0.37500000  0.79449200  1
  O  O249  1  0.71653196  0.87500000  0.12782533  1
  O  O250  1  0.71653196  0.87500000  0.46115867  1
  O  O251  1  0.71653196  0.87500000  0.79449200  1
  O  O252  1  0.16434541  0.44066750  0.24164743  1
  O  O253  1  0.16434541  0.44066750  0.57498076  1
  O  O254  1  0.16434541  0.44066750  0.90831409  1
  O  O255  1  0.16434541  0.94066750  0.24164743  1
  O  O256  1  0.16434541  0.94066750  0.57498076  1
  O  O257  1  0.16434541  0.94066750  0.90831409  1
  O  O258  1  0.49767874  0.44066750  0.24164743  1
  O  O259  1  0.49767874  0.44066750  0.57498076  1
  O  O260  1  0.49767874  0.44066750  0.90831409  1
  O  O261  1  0.49767874  0.94066750  0.24164743  1
  O  O262  1  0.49767874  0.94066750  0.57498076  1
  O  O263  1  0.49767874  0.94066750  0.90831409  1
  O  O264  1  0.83101207  0.44066750  0.24164743  1
  O  O265  1  0.83101207  0.44066750  0.57498076  1
  O  O266  1  0.83101207  0.44066750  0.90831409  1
  O  O267  1  0.83101207  0.94066750  0.24164743  1
  O  O268  1  0.83101207  0.94066750  0.57498076  1
  O  O269  1  0.83101207  0.94066750  0.90831409  1
  O  O270  1  0.33101207  0.44066750  0.25835257  1
  O  O271  1  0.33101207  0.44066750  0.59168591  1
  O  O272  1  0.33101207  0.44066750  0.92501924  1
  O  O273  1  0.33101207  0.94066750  0.25835257  1
  O  O274  1  0.33101207  0.94066750  0.59168591  1
  O  O275  1  0.33101207  0.94066750  0.92501924  1
  O  O276  1  0.66434541  0.44066750  0.25835257  1
  O  O277  1  0.66434541  0.44066750  0.59168591  1
  O  O278  1  0.66434541  0.44066750  0.92501924  1
  O  O279  1  0.66434541  0.94066750  0.25835257  1
  O  O280  1  0.66434541  0.94066750  0.59168591  1
  O  O281  1  0.66434541  0.94066750  0.92501924  1
  O  O282  1  0.99767874  0.44066750  0.25835257  1
  O  O283  1  0.99767874  0.44066750  0.59168591  1
  O  O284  1  0.99767874  0.44066750  0.92501924  1
  O  O285  1  0.99767874  0.94066750  0.25835257  1
  O  O286  1  0.99767874  0.94066750  0.59168591  1
  O  O287  1  0.99767874  0.94066750  0.92501924  1
  O  O288  1  0.00232126  0.05933250  0.07498076  1
  O  O289  1  0.00232126  0.05933250  0.40831409  1
  O  O290  1  0.00232126  0.05933250  0.74164743  1
  O  O291  1  0.00232126  0.55933250  0.07498076  1
  O  O292  1  0.00232126  0.55933250  0.40831409  1
  O  O293  1  0.00232126  0.55933250  0.74164743  1
  O  O294  1  0.33565459  0.05933250  0.07498076  1
  O  O295  1  0.33565459  0.05933250  0.40831409  1
  O  O296  1  0.33565459  0.05933250  0.74164743  1
  O  O297  1  0.33565459  0.55933250  0.07498076  1
  O  O298  1  0.33565459  0.55933250  0.40831409  1
  O  O299  1  0.33565459  0.55933250  0.74164743  1
  O  O300  1  0.66898793  0.05933250  0.07498076  1
  O  O301  1  0.66898793  0.05933250  0.40831409  1
  O  O302  1  0.66898793  0.05933250  0.74164743  1
  O  O303  1  0.66898793  0.55933250  0.07498076  1
  O  O304  1  0.66898793  0.55933250  0.40831409  1
  O  O305  1  0.66898793  0.55933250  0.74164743  1
  O  O306  1  0.28346804  0.12500000  0.20550800  1
  O  O307  1  0.28346804  0.12500000  0.53884133  1
  O  O308  1  0.28346804  0.12500000  0.87217467  1
  O  O309  1  0.28346804  0.62500000  0.20550800  1
  O  O310  1  0.28346804  0.62500000  0.53884133  1
  O  O311  1  0.28346804  0.62500000  0.87217467  1
  O  O312  1  0.61680137  0.12500000  0.20550800  1
  O  O313  1  0.61680137  0.12500000  0.53884133  1
  O  O314  1  0.61680137  0.12500000  0.87217467  1
  O  O315  1  0.61680137  0.62500000  0.20550800  1
  O  O316  1  0.61680137  0.62500000  0.53884133  1
  O  O317  1  0.61680137  0.62500000  0.87217467  1
  O  O318  1  0.95013471  0.12500000  0.20550800  1
  O  O319  1  0.95013471  0.12500000  0.53884133  1
  O  O320  1  0.95013471  0.12500000  0.87217467  1
  O  O321  1  0.95013471  0.62500000  0.20550800  1
  O  O322  1  0.95013471  0.62500000  0.53884133  1
  O  O323  1  0.95013471  0.62500000  0.87217467  1
  O  O324  1  0.16434541  0.30933250  0.24164743  1
  O  O325  1  0.16434541  0.30933250  0.57498076  1
  O  O326  1  0.16434541  0.30933250  0.90831409  1
  O  O327  1  0.16434541  0.80933250  0.24164743  1
  O  O328  1  0.16434541  0.80933250  0.57498076  1
  O  O329  1  0.16434541  0.80933250  0.90831409  1
  O  O330  1  0.49767874  0.30933250  0.24164743  1
  O  O331  1  0.49767874  0.30933250  0.57498076  1
  O  O332  1  0.49767874  0.30933250  0.90831409  1
  O  O333  1  0.49767874  0.80933250  0.24164743  1
  O  O334  1  0.49767874  0.80933250  0.57498076  1
  O  O335  1  0.49767874  0.80933250  0.90831409  1
  O  O336  1  0.83101207  0.30933250  0.24164743  1
  O  O337  1  0.83101207  0.30933250  0.57498076  1
  O  O338  1  0.83101207  0.30933250  0.90831409  1
  O  O339  1  0.83101207  0.80933250  0.24164743  1
  O  O340  1  0.83101207  0.80933250  0.57498076  1
  O  O341  1  0.83101207  0.80933250  0.90831409  1
  O  O342  1  0.11680137  0.12500000  0.29449200  1
  O  O343  1  0.11680137  0.12500000  0.62782533  1
  O  O344  1  0.11680137  0.12500000  0.96115867  1
  O  O345  1  0.11680137  0.62500000  0.29449200  1
  O  O346  1  0.11680137  0.62500000  0.62782533  1
  O  O347  1  0.11680137  0.62500000  0.96115867  1
  O  O348  1  0.45013471  0.12500000  0.29449200  1
  O  O349  1  0.45013471  0.12500000  0.62782533  1
  O  O350  1  0.45013471  0.12500000  0.96115867  1
  O  O351  1  0.45013471  0.62500000  0.29449200  1
  O  O352  1  0.45013471  0.62500000  0.62782533  1
  O  O353  1  0.45013471  0.62500000  0.96115867  1
  O  O354  1  0.78346804  0.12500000  0.29449200  1
  O  O355  1  0.78346804  0.12500000  0.62782533  1
  O  O356  1  0.78346804  0.12500000  0.96115867  1
  O  O357  1  0.78346804  0.62500000  0.29449200  1
  O  O358  1  0.78346804  0.62500000  0.62782533  1
  O  O359  1  0.78346804  0.62500000  0.96115867  1
  O  O360  1  0.21653196  0.37500000  0.03884133  1
  O  O361  1  0.21653196  0.37500000  0.37217467  1
  O  O362  1  0.21653196  0.37500000  0.70550800  1
  O  O363  1  0.21653196  0.87500000  0.03884133  1
  O  O364  1  0.21653196  0.87500000  0.37217467  1
  O  O365  1  0.21653196  0.87500000  0.70550800  1
  O  O366  1  0.54986529  0.37500000  0.03884133  1
  O  O367  1  0.54986529  0.37500000  0.37217467  1
  O  O368  1  0.54986529  0.37500000  0.70550800  1
  O  O369  1  0.54986529  0.87500000  0.03884133  1
  O  O370  1  0.54986529  0.87500000  0.37217467  1
  O  O371  1  0.54986529  0.87500000  0.70550800  1
  O  O372  1  0.88319863  0.37500000  0.03884133  1
  O  O373  1  0.88319863  0.37500000  0.37217467  1
  O  O374  1  0.88319863  0.37500000  0.70550800  1
  O  O375  1  0.88319863  0.87500000  0.03884133  1
  O  O376  1  0.88319863  0.87500000  0.37217467  1
  O  O377  1  0.88319863  0.87500000  0.70550800  1
  O  O378  1  0.16898793  0.19066750  0.09168591  1
  O  O379  1  0.16898793  0.19066750  0.42501924  1
  O  O380  1  0.16898793  0.19066750  0.75835257  1
  O  O381  1  0.16898793  0.69066750  0.09168591  1
  O  O382  1  0.16898793  0.69066750  0.42501924  1
  O  O383  1  0.16898793  0.69066750  0.75835257  1
  O  O384  1  0.50232126  0.19066750  0.09168591  1
  O  O385  1  0.50232126  0.19066750  0.42501924  1
  O  O386  1  0.50232126  0.19066750  0.75835257  1
  O  O387  1  0.50232126  0.69066750  0.09168591  1
  O  O388  1  0.50232126  0.69066750  0.42501924  1
  O  O389  1  0.50232126  0.69066750  0.75835257  1
  O  O390  1  0.83565459  0.19066750  0.09168591  1
  O  O391  1  0.83565459  0.19066750  0.42501924  1
  O  O392  1  0.83565459  0.19066750  0.75835257  1
  O  O393  1  0.83565459  0.69066750  0.09168591  1
  O  O394  1  0.83565459  0.69066750  0.42501924  1
  O  O395  1  0.83565459  0.69066750  0.75835257  1
  O  O396  1  0.16898793  0.05933250  0.09168591  1
  O  O397  1  0.16898793  0.05933250  0.42501924  1
  O  O398  1  0.16898793  0.05933250  0.75835257  1
  O  O399  1  0.16898793  0.55933250  0.09168591  1
  O  O400  1  0.16898793  0.55933250  0.42501924  1
  O  O401  1  0.16898793  0.55933250  0.75835257  1
  O  O402  1  0.50232126  0.05933250  0.09168591  1
  O  O403  1  0.50232126  0.05933250  0.42501924  1
  O  O404  1  0.50232126  0.05933250  0.75835257  1
  O  O405  1  0.50232126  0.55933250  0.09168591  1
  O  O406  1  0.50232126  0.55933250  0.42501924  1
  O  O407  1  0.50232126  0.55933250  0.75835257  1
  O  O408  1  0.83565459  0.05933250  0.09168591  1
  O  O409  1  0.83565459  0.05933250  0.42501924  1
  O  O410  1  0.83565459  0.05933250  0.75835257  1
  O  O411  1  0.83565459  0.55933250  0.09168591  1
  O  O412  1  0.83565459  0.55933250  0.42501924  1
  O  O413  1  0.83565459  0.55933250  0.75835257  1
  O  O414  1  0.33101207  0.30933250  0.25835257  1
  O  O415  1  0.33101207  0.30933250  0.59168591  1
  O  O416  1  0.33101207  0.30933250  0.92501924  1
  O  O417  1  0.33101207  0.80933250  0.25835257  1
  O  O418  1  0.33101207  0.80933250  0.59168591  1
  O  O419  1  0.33101207  0.80933250  0.92501924  1
  O  O420  1  0.66434541  0.30933250  0.25835257  1
  O  O421  1  0.66434541  0.30933250  0.59168591  1
  O  O422  1  0.66434541  0.30933250  0.92501924  1
  O  O423  1  0.66434541  0.80933250  0.25835257  1
  O  O424  1  0.66434541  0.80933250  0.59168591  1
  O  O425  1  0.66434541  0.80933250  0.92501924  1
  O  O426  1  0.99767874  0.30933250  0.25835257  1
  O  O427  1  0.99767874  0.30933250  0.59168591  1
  O  O428  1  0.99767874  0.30933250  0.92501924  1
  O  O429  1  0.99767874  0.80933250  0.25835257  1
  O  O430  1  0.99767874  0.80933250  0.59168591  1
  O  O431  1  0.99767874  0.80933250  0.92501924  1
