# generated using pymatgen
data_Mg(GaO2)2
_symmetry_space_group_name_H-M   'P 1'
_cell_length_a   11.65172078
_cell_length_b   11.83300007
_cell_length_c   8.25791203
_cell_angle_alpha   90.00000000
_cell_angle_beta   90.00000000
_cell_angle_gamma   90.00000000
_symmetry_Int_Tables_number   1
_chemical_formula_structural   Mg(GaO2)2
_chemical_formula_sum   'Mg16 Ga32 O64'
_cell_volume   1138.55807499
_cell_formula_units_Z   16
loop_
 _symmetry_equiv_pos_site_id
 _symmetry_equiv_pos_as_xyz
  1  'x, y, z'
loop_
 _atom_site_type_symbol
 _atom_site_label
 _atom_site_symmetry_multiplicity
 _atom_site_fract_x
 _atom_site_fract_y
 _atom_site_fract_z
 _atom_site_occupancy
  Mg  Mg0  1  0.12500000  0.12500000  0.25000000  1
  Mg  Mg1  1  0.12500000  0.62500000  0.25000000  1
  Mg  Mg2  1  0.62500000  0.12500000  0.25000000  1
  Mg  Mg3  1  0.62500000  0.62500000  0.25000000  1
  Mg  Mg4  1  0.37500000  0.37500000  0.75000000  1
  Mg  Mg5  1  0.37500000  0.87500000  0.75000000  1
  Mg  Mg6  1  0.87500000  0.37500000  0.75000000  1
  Mg  Mg7  1  0.87500000  0.87500000  0.75000000  1
  Mg  Mg8  1  -0.12500000  0.12500000  0.25000000  1
  Mg  Mg9  1  -0.12500000  0.62500000  0.25000000  1
  Mg  Mg10  1  0.37500000  0.12500000  0.25000000  1
  Mg  Mg11  1  0.37500000  0.62500000  0.25000000  1
  Mg  Mg12  1  0.12500000  0.37500000  0.75000000  1
  Mg  Mg13  1  0.12500000  0.87500000  0.75000000  1
  Mg  Mg14  1  0.62500000  0.37500000  0.75000000  1
  Mg  Mg15  1  0.62500000  0.87500000  0.75000000  1
  Ga  Ga16  1  -0.00000000  0.37500000  0.13532213  1
  Ga  Ga17  1  -0.00000000  0.87500000  0.13532213  1
  Ga  Ga18  1  0.50000000  0.37500000  0.13532213  1
  Ga  Ga19  1  0.50000000  0.87500000  0.13532213  1
  Ga  Ga20  1  0.25000000  0.62500000  0.63532213  1
  Ga  Ga21  1  0.25000000  1.12500000  0.63532213  1
  Ga  Ga22  1  0.75000000  0.62500000  0.63532213  1
  Ga  Ga23  1  0.75000000  1.12500000  0.63532213  1
  Ga  Ga24  1  0.25000000  -0.12500000  0.36467787  1
  Ga  Ga25  1  0.25000000  0.37500000  0.36467787  1
  Ga  Ga26  1  0.75000000  -0.12500000  0.36467787  1
  Ga  Ga27  1  0.75000000  0.37500000  0.36467787  1
  Ga  Ga28  1  0.50000000  0.12500000  0.86467787  1
  Ga  Ga29  1  0.50000000  0.62500000  0.86467787  1
  Ga  Ga30  1  1.00000000  0.12500000  0.86467787  1
  Ga  Ga31  1  1.00000000  0.62500000  0.86467787  1
  Ga  Ga32  1  0.25000000  0.00000000  0.00000000  1
  Ga  Ga33  1  0.25000000  0.50000000  0.00000000  1
  Ga  Ga34  1  0.75000000  0.00000000  0.00000000  1
  Ga  Ga35  1  0.75000000  0.50000000  0.00000000  1
  Ga  Ga36  1  0.50000000  0.25000000  0.50000000  1
  Ga  Ga37  1  0.50000000  0.75000000  0.50000000  1
  Ga  Ga38  1  1.00000000  0.25000000  0.50000000  1
  Ga  Ga39  1  1.00000000  0.75000000  0.50000000  1
  Ga  Ga40  1  0.00000000  0.00000000  0.50000000  1
  Ga  Ga41  1  0.00000000  0.50000000  0.50000000  1
  Ga  Ga42  1  0.50000000  0.00000000  0.50000000  1
  Ga  Ga43  1  0.50000000  0.50000000  0.50000000  1
  Ga  Ga44  1  0.25000000  0.25000000  1.00000000  1
  Ga  Ga45  1  0.25000000  0.75000000  1.00000000  1
  Ga  Ga46  1  0.75000000  0.25000000  1.00000000  1
  Ga  Ga47  1  0.75000000  0.75000000  1.00000000  1
  O  O48  1  0.25000000  0.00481277  0.23778486  1
  O  O49  1  0.25000000  0.50481277  0.23778486  1
  O  O50  1  0.75000000  0.00481277  0.23778486  1
  O  O51  1  0.75000000  0.50481277  0.23778486  1
  O  O52  1  0.50000000  0.25481277  0.73778486  1
  O  O53  1  0.50000000  0.75481277  0.73778486  1
  O  O54  1  1.00000000  0.25481277  0.73778486  1
  O  O55  1  1.00000000  0.75481277  0.73778486  1
  O  O56  1  0.25000000  0.24518723  0.23778486  1
  O  O57  1  0.25000000  0.74518723  0.23778486  1
  O  O58  1  0.75000000  0.24518723  0.23778486  1
  O  O59  1  0.75000000  0.74518723  0.23778486  1
  O  O60  1  0.50000000  0.49518723  0.73778486  1
  O  O61  1  0.50000000  0.99518723  0.73778486  1
  O  O62  1  1.00000000  0.49518723  0.73778486  1
  O  O63  1  1.00000000  0.99518723  0.73778486  1
  O  O64  1  0.13187742  0.12500000  0.00051473  1
  O  O65  1  0.13187742  0.62500000  0.00051473  1
  O  O66  1  0.63187742  0.12500000  0.00051473  1
  O  O67  1  0.63187742  0.62500000  0.00051473  1
  O  O68  1  0.38187742  0.37500000  0.50051473  1
  O  O69  1  0.38187742  0.87500000  0.50051473  1
  O  O70  1  0.88187742  0.37500000  0.50051473  1
  O  O71  1  0.88187742  0.87500000  0.50051473  1
  O  O72  1  0.36812258  0.12500000  0.00051473  1
  O  O73  1  0.36812258  0.62500000  0.00051473  1
  O  O74  1  0.86812258  0.12500000  0.00051473  1
  O  O75  1  0.86812258  0.62500000  0.00051473  1
  O  O76  1  0.61812258  0.37500000  0.50051473  1
  O  O77  1  0.61812258  0.87500000  0.50051473  1
  O  O78  1  1.11812258  0.37500000  0.50051473  1
  O  O79  1  1.11812258  0.87500000  0.50051473  1
  O  O80  1  -0.11812258  0.12500000  0.49948527  1
  O  O81  1  -0.11812258  0.62500000  0.49948527  1
  O  O82  1  0.38187742  0.12500000  0.49948527  1
  O  O83  1  0.38187742  0.62500000  0.49948527  1
  O  O84  1  0.13187742  0.37500000  0.99948527  1
  O  O85  1  0.13187742  0.87500000  0.99948527  1
  O  O86  1  0.63187742  0.37500000  0.99948527  1
  O  O87  1  0.63187742  0.87500000  0.99948527  1
  O  O88  1  0.11812258  0.12500000  0.49948527  1
  O  O89  1  0.11812258  0.62500000  0.49948527  1
  O  O90  1  0.61812258  0.12500000  0.49948527  1
  O  O91  1  0.61812258  0.62500000  0.49948527  1
  O  O92  1  0.36812258  0.37500000  0.99948527  1
  O  O93  1  0.36812258  0.87500000  0.99948527  1
  O  O94  1  0.86812258  0.37500000  0.99948527  1
  O  O95  1  0.86812258  0.87500000  0.99948527  1
  O  O96  1  -0.00000000  0.00481277  0.26221514  1
  O  O97  1  -0.00000000  0.50481277  0.26221514  1
  O  O98  1  0.50000000  0.00481277  0.26221514  1
  O  O99  1  0.50000000  0.50481277  0.26221514  1
  O  O100  1  0.25000000  0.25481277  0.76221514  1
  O  O101  1  0.25000000  0.75481277  0.76221514  1
  O  O102  1  0.75000000  0.25481277  0.76221514  1
  O  O103  1  0.75000000  0.75481277  0.76221514  1
  O  O104  1  -0.00000000  0.24518723  0.26221514  1
  O  O105  1  -0.00000000  0.74518723  0.26221514  1
  O  O106  1  0.50000000  0.24518723  0.26221514  1
  O  O107  1  0.50000000  0.74518723  0.26221514  1
  O  O108  1  0.25000000  0.49518723  0.76221514  1
  O  O109  1  0.25000000  0.99518723  0.76221514  1
  O  O110  1  0.75000000  0.49518723  0.76221514  1
  O  O111  1  0.75000000  0.99518723  0.76221514  1
