# generated using pymatgen
data_Ca4As2O
_symmetry_space_group_name_H-M   'P 1'
_cell_length_a   13.50334453
_cell_length_b   13.50334453
_cell_length_c   15.26779393
_cell_angle_alpha   90.00000000
_cell_angle_beta   90.00000000
_cell_angle_gamma   90.00000000
_symmetry_Int_Tables_number   1
_chemical_formula_structural   Ca4As2O
_chemical_formula_sum   'Ca72 As36 O18'
_cell_volume   2783.93433050
_cell_formula_units_Z   18
loop_
 _symmetry_equiv_pos_site_id
 _symmetry_equiv_pos_as_xyz
  1  'x, y, z'
loop_
 _atom_site_type_symbol
 _atom_site_label
 _atom_site_symmetry_multiplicity
 _atom_site_fract_x
 _atom_site_fract_y
 _atom_site_fract_z
 _atom_site_occupancy
  Ca  Ca0  1  0.00000000  -0.00000000  0.67112164  1
  Ca  Ca1  1  0.00000000  0.33333333  0.67112164  1
  Ca  Ca2  1  0.00000000  0.66666667  0.67112164  1
  Ca  Ca3  1  0.33333333  -0.00000000  0.67112164  1
  Ca  Ca4  1  0.33333333  0.33333333  0.67112164  1
  Ca  Ca5  1  0.33333333  0.66666667  0.67112164  1
  Ca  Ca6  1  0.66666667  -0.00000000  0.67112164  1
  Ca  Ca7  1  0.66666667  0.33333333  0.67112164  1
  Ca  Ca8  1  0.66666667  0.66666667  0.67112164  1
  Ca  Ca9  1  0.16666667  0.16666667  1.17112164  1
  Ca  Ca10  1  0.16666667  0.50000000  1.17112164  1
  Ca  Ca11  1  0.16666667  0.83333333  1.17112164  1
  Ca  Ca12  1  0.50000000  0.16666667  1.17112164  1
  Ca  Ca13  1  0.50000000  0.50000000  1.17112164  1
  Ca  Ca14  1  0.50000000  0.83333333  1.17112164  1
  Ca  Ca15  1  0.83333333  0.16666667  1.17112164  1
  Ca  Ca16  1  0.83333333  0.50000000  1.17112164  1
  Ca  Ca17  1  0.83333333  0.83333333  1.17112164  1
  Ca  Ca18  1  -0.00000000  0.00000000  0.32887836  1
  Ca  Ca19  1  -0.00000000  0.33333333  0.32887836  1
  Ca  Ca20  1  -0.00000000  0.66666667  0.32887836  1
  Ca  Ca21  1  0.33333333  0.00000000  0.32887836  1
  Ca  Ca22  1  0.33333333  0.33333333  0.32887836  1
  Ca  Ca23  1  0.33333333  0.66666667  0.32887836  1
  Ca  Ca24  1  0.66666667  0.00000000  0.32887836  1
  Ca  Ca25  1  0.66666667  0.33333333  0.32887836  1
  Ca  Ca26  1  0.66666667  0.66666667  0.32887836  1
  Ca  Ca27  1  0.16666667  0.16666667  0.82887836  1
  Ca  Ca28  1  0.16666667  0.50000000  0.82887836  1
  Ca  Ca29  1  0.16666667  0.83333333  0.82887836  1
  Ca  Ca30  1  0.50000000  0.16666667  0.82887836  1
  Ca  Ca31  1  0.50000000  0.50000000  0.82887836  1
  Ca  Ca32  1  0.50000000  0.83333333  0.82887836  1
  Ca  Ca33  1  0.83333333  0.16666667  0.82887836  1
  Ca  Ca34  1  0.83333333  0.50000000  0.82887836  1
  Ca  Ca35  1  0.83333333  0.83333333  0.82887836  1
  Ca  Ca36  1  0.16666667  0.00000000  0.00000000  1
  Ca  Ca37  1  0.16666667  0.33333333  0.00000000  1
  Ca  Ca38  1  0.16666667  0.66666667  0.00000000  1
  Ca  Ca39  1  0.50000000  0.00000000  0.00000000  1
  Ca  Ca40  1  0.50000000  0.33333333  0.00000000  1
  Ca  Ca41  1  0.50000000  0.66666667  0.00000000  1
  Ca  Ca42  1  0.83333333  0.00000000  0.00000000  1
  Ca  Ca43  1  0.83333333  0.33333333  0.00000000  1
  Ca  Ca44  1  0.83333333  0.66666667  0.00000000  1
  Ca  Ca45  1  0.33333333  0.16666667  0.50000000  1
  Ca  Ca46  1  0.33333333  0.50000000  0.50000000  1
  Ca  Ca47  1  0.33333333  0.83333333  0.50000000  1
  Ca  Ca48  1  0.66666667  0.16666667  0.50000000  1
  Ca  Ca49  1  0.66666667  0.50000000  0.50000000  1
  Ca  Ca50  1  0.66666667  0.83333333  0.50000000  1
  Ca  Ca51  1  1.00000000  0.16666667  0.50000000  1
  Ca  Ca52  1  1.00000000  0.50000000  0.50000000  1
  Ca  Ca53  1  1.00000000  0.83333333  0.50000000  1
  Ca  Ca54  1  0.00000000  0.16666667  0.00000000  1
  Ca  Ca55  1  0.00000000  0.50000000  0.00000000  1
  Ca  Ca56  1  0.00000000  0.83333333  0.00000000  1
  Ca  Ca57  1  0.33333333  0.16666667  0.00000000  1
  Ca  Ca58  1  0.33333333  0.50000000  0.00000000  1
  Ca  Ca59  1  0.33333333  0.83333333  0.00000000  1
  Ca  Ca60  1  0.66666667  0.16666667  0.00000000  1
  Ca  Ca61  1  0.66666667  0.50000000  0.00000000  1
  Ca  Ca62  1  0.66666667  0.83333333  0.00000000  1
  Ca  Ca63  1  0.16666667  0.33333333  0.50000000  1
  Ca  Ca64  1  0.16666667  0.66666667  0.50000000  1
  Ca  Ca65  1  0.16666667  1.00000000  0.50000000  1
  Ca  Ca66  1  0.50000000  0.33333333  0.50000000  1
  Ca  Ca67  1  0.50000000  0.66666667  0.50000000  1
  Ca  Ca68  1  0.50000000  1.00000000  0.50000000  1
  Ca  Ca69  1  0.83333333  0.33333333  0.50000000  1
  Ca  Ca70  1  0.83333333  0.66666667  0.50000000  1
  Ca  Ca71  1  0.83333333  1.00000000  0.50000000  1
  As  As72  1  0.00000000  -0.00000000  0.86295755  1
  As  As73  1  0.00000000  0.33333333  0.86295755  1
  As  As74  1  0.00000000  0.66666667  0.86295755  1
  As  As75  1  0.33333333  -0.00000000  0.86295755  1
  As  As76  1  0.33333333  0.33333333  0.86295755  1
  As  As77  1  0.33333333  0.66666667  0.86295755  1
  As  As78  1  0.66666667  -0.00000000  0.86295755  1
  As  As79  1  0.66666667  0.33333333  0.86295755  1
  As  As80  1  0.66666667  0.66666667  0.86295755  1
  As  As81  1  0.16666667  0.16666667  1.36295755  1
  As  As82  1  0.16666667  0.50000000  1.36295755  1
  As  As83  1  0.16666667  0.83333333  1.36295755  1
  As  As84  1  0.50000000  0.16666667  1.36295755  1
  As  As85  1  0.50000000  0.50000000  1.36295755  1
  As  As86  1  0.50000000  0.83333333  1.36295755  1
  As  As87  1  0.83333333  0.16666667  1.36295755  1
  As  As88  1  0.83333333  0.50000000  1.36295755  1
  As  As89  1  0.83333333  0.83333333  1.36295755  1
  As  As90  1  -0.00000000  0.00000000  0.13704245  1
  As  As91  1  -0.00000000  0.33333333  0.13704245  1
  As  As92  1  -0.00000000  0.66666667  0.13704245  1
  As  As93  1  0.33333333  0.00000000  0.13704245  1
  As  As94  1  0.33333333  0.33333333  0.13704245  1
  As  As95  1  0.33333333  0.66666667  0.13704245  1
  As  As96  1  0.66666667  0.00000000  0.13704245  1
  As  As97  1  0.66666667  0.33333333  0.13704245  1
  As  As98  1  0.66666667  0.66666667  0.13704245  1
  As  As99  1  0.16666667  0.16666667  0.63704245  1
  As  As100  1  0.16666667  0.50000000  0.63704245  1
  As  As101  1  0.16666667  0.83333333  0.63704245  1
  As  As102  1  0.50000000  0.16666667  0.63704245  1
  As  As103  1  0.50000000  0.50000000  0.63704245  1
  As  As104  1  0.50000000  0.83333333  0.63704245  1
  As  As105  1  0.83333333  0.16666667  0.63704245  1
  As  As106  1  0.83333333  0.50000000  0.63704245  1
  As  As107  1  0.83333333  0.83333333  0.63704245  1
  O  O108  1  0.00000000  0.00000000  0.50000000  1
  O  O109  1  0.00000000  0.33333333  0.50000000  1
  O  O110  1  0.00000000  0.66666667  0.50000000  1
  O  O111  1  0.33333333  0.00000000  0.50000000  1
  O  O112  1  0.33333333  0.33333333  0.50000000  1
  O  O113  1  0.33333333  0.66666667  0.50000000  1
  O  O114  1  0.66666667  0.00000000  0.50000000  1
  O  O115  1  0.66666667  0.33333333  0.50000000  1
  O  O116  1  0.66666667  0.66666667  0.50000000  1
  O  O117  1  0.16666667  0.16666667  1.00000000  1
  O  O118  1  0.16666667  0.50000000  1.00000000  1
  O  O119  1  0.16666667  0.83333333  1.00000000  1
  O  O120  1  0.50000000  0.16666667  1.00000000  1
  O  O121  1  0.50000000  0.50000000  1.00000000  1
  O  O122  1  0.50000000  0.83333333  1.00000000  1
  O  O123  1  0.83333333  0.16666667  1.00000000  1
  O  O124  1  0.83333333  0.50000000  1.00000000  1
  O  O125  1  0.83333333  0.83333333  1.00000000  1
