# generated using pymatgen
data_Au2O3
_symmetry_space_group_name_H-M   'P 1'
_cell_length_a   10.46900122
_cell_length_b   12.81433407
_cell_length_c   11.73216782
_cell_angle_alpha   90.00000000
_cell_angle_beta   90.00000000
_cell_angle_gamma   90.00000000
_symmetry_Int_Tables_number   1
_chemical_formula_structural   Au2O3
_chemical_formula_sum   'Au48 O72'
_cell_volume   1573.90878355
_cell_formula_units_Z   24
loop_
 _symmetry_equiv_pos_site_id
 _symmetry_equiv_pos_as_xyz
  1  'x, y, z'
loop_
 _atom_site_type_symbol
 _atom_site_label
 _atom_site_symmetry_multiplicity
 _atom_site_fract_x
 _atom_site_fract_y
 _atom_site_fract_z
 _atom_site_occupancy
  Au  Au0  1  0.36656971  0.45417329  0.25166979  1
  Au  Au1  1  0.36656971  0.45417329  0.58500312  1
  Au  Au2  1  0.36656971  0.45417329  0.91833646  1
  Au  Au3  1  0.86656971  0.95417329  0.25166979  1
  Au  Au4  1  0.86656971  0.95417329  0.58500312  1
  Au  Au5  1  0.86656971  0.95417329  0.91833646  1
  Au  Au6  1  0.86656971  0.45417329  0.41833646  1
  Au  Au7  1  0.86656971  0.45417329  0.75166979  1
  Au  Au8  1  0.86656971  0.45417329  1.08500312  1
  Au  Au9  1  0.36656971  0.95417329  0.41833646  1
  Au  Au10  1  0.36656971  0.95417329  0.75166979  1
  Au  Au11  1  0.36656971  0.95417329  1.08500312  1
  Au  Au12  1  0.63343029  0.54582671  0.25166979  1
  Au  Au13  1  0.63343029  0.54582671  0.58500312  1
  Au  Au14  1  0.63343029  0.54582671  0.91833646  1
  Au  Au15  1  1.13343029  1.04582671  0.25166979  1
  Au  Au16  1  1.13343029  1.04582671  0.58500312  1
  Au  Au17  1  1.13343029  1.04582671  0.91833646  1
  Au  Au18  1  1.13343029  0.54582671  0.41833646  1
  Au  Au19  1  1.13343029  0.54582671  0.75166979  1
  Au  Au20  1  1.13343029  0.54582671  1.08500312  1
  Au  Au21  1  0.63343029  1.04582671  0.41833646  1
  Au  Au22  1  0.63343029  1.04582671  0.75166979  1
  Au  Au23  1  0.63343029  1.04582671  1.08500312  1
  Au  Au24  1  0.38343029  0.70417329  0.16833646  1
  Au  Au25  1  0.38343029  0.70417329  0.50166979  1
  Au  Au26  1  0.38343029  0.70417329  0.83500312  1
  Au  Au27  1  0.88343029  1.20417329  0.16833646  1
  Au  Au28  1  0.88343029  1.20417329  0.50166979  1
  Au  Au29  1  0.88343029  1.20417329  0.83500312  1
  Au  Au30  1  0.88343029  0.70417329  0.33500312  1
  Au  Au31  1  0.88343029  0.70417329  0.66833646  1
  Au  Au32  1  0.88343029  0.70417329  1.00166979  1
  Au  Au33  1  0.38343029  1.20417329  0.33500312  1
  Au  Au34  1  0.38343029  1.20417329  0.66833646  1
  Au  Au35  1  0.38343029  1.20417329  1.00166979  1
  Au  Au36  1  0.61656971  0.29582671  0.16833646  1
  Au  Au37  1  0.61656971  0.29582671  0.50166979  1
  Au  Au38  1  0.61656971  0.29582671  0.83500312  1
  Au  Au39  1  1.11656971  0.79582671  0.16833646  1
  Au  Au40  1  1.11656971  0.79582671  0.50166979  1
  Au  Au41  1  1.11656971  0.79582671  0.83500312  1
  Au  Au42  1  1.11656971  0.29582671  0.33500312  1
  Au  Au43  1  1.11656971  0.29582671  0.66833646  1
  Au  Au44  1  1.11656971  0.29582671  1.00166979  1
  Au  Au45  1  0.61656971  0.79582671  0.33500312  1
  Au  Au46  1  0.61656971  0.79582671  0.66833646  1
  Au  Au47  1  0.61656971  0.79582671  1.00166979  1
  O  O48  1  0.50000000  0.50000000  0.14587097  1
  O  O49  1  0.50000000  0.50000000  0.47920431  1
  O  O50  1  0.50000000  0.50000000  0.81253764  1
  O  O51  1  1.00000000  1.00000000  0.14587097  1
  O  O52  1  1.00000000  1.00000000  0.47920431  1
  O  O53  1  1.00000000  1.00000000  0.81253764  1
  O  O54  1  1.00000000  0.50000000  0.31253764  1
  O  O55  1  1.00000000  0.50000000  0.64587097  1
  O  O56  1  1.00000000  0.50000000  0.97920431  1
  O  O57  1  0.50000000  1.00000000  0.31253764  1
  O  O58  1  0.50000000  1.00000000  0.64587097  1
  O  O59  1  0.50000000  1.00000000  0.97920431  1
  O  O60  1  0.75000000  0.75000000  0.22920431  1
  O  O61  1  0.75000000  0.75000000  0.56253764  1
  O  O62  1  0.75000000  0.75000000  0.89587097  1
  O  O63  1  1.25000000  1.25000000  0.22920431  1
  O  O64  1  1.25000000  1.25000000  0.56253764  1
  O  O65  1  1.25000000  1.25000000  0.89587097  1
  O  O66  1  1.25000000  0.75000000  0.39587097  1
  O  O67  1  1.25000000  0.75000000  0.72920431  1
  O  O68  1  1.25000000  0.75000000  1.06253764  1
  O  O69  1  0.75000000  1.25000000  0.39587097  1
  O  O70  1  0.75000000  1.25000000  0.72920431  1
  O  O71  1  0.75000000  1.25000000  1.06253764  1
  O  O72  1  0.26752422  0.58218341  0.20754472  1
  O  O73  1  0.26752422  0.58218341  0.54087806  1
  O  O74  1  0.26752422  0.58218341  0.87421139  1
  O  O75  1  0.76752422  1.08218341  0.20754472  1
  O  O76  1  0.76752422  1.08218341  0.54087806  1
  O  O77  1  0.76752422  1.08218341  0.87421139  1
  O  O78  1  0.76752422  0.58218341  0.37421139  1
  O  O79  1  0.76752422  0.58218341  0.70754472  1
  O  O80  1  0.76752422  0.58218341  1.04087806  1
  O  O81  1  0.26752422  1.08218341  0.37421139  1
  O  O82  1  0.26752422  1.08218341  0.70754472  1
  O  O83  1  0.26752422  1.08218341  1.04087806  1
  O  O84  1  0.73247578  0.41781659  0.20754472  1
  O  O85  1  0.73247578  0.41781659  0.54087806  1
  O  O86  1  0.73247578  0.41781659  0.87421139  1
  O  O87  1  1.23247578  0.91781659  0.20754472  1
  O  O88  1  1.23247578  0.91781659  0.54087806  1
  O  O89  1  1.23247578  0.91781659  0.87421139  1
  O  O90  1  1.23247578  0.41781659  0.37421139  1
  O  O91  1  1.23247578  0.41781659  0.70754472  1
  O  O92  1  1.23247578  0.41781659  1.04087806  1
  O  O93  1  0.73247578  0.91781659  0.37421139  1
  O  O94  1  0.73247578  0.91781659  0.70754472  1
  O  O95  1  0.73247578  0.91781659  1.04087806  1
  O  O96  1  0.51752422  0.16781659  0.12421139  1
  O  O97  1  0.51752422  0.16781659  0.45754472  1
  O  O98  1  0.51752422  0.16781659  0.79087806  1
  O  O99  1  1.01752422  0.66781659  0.12421139  1
  O  O100  1  1.01752422  0.66781659  0.45754472  1
  O  O101  1  1.01752422  0.66781659  0.79087806  1
  O  O102  1  1.01752422  0.16781659  0.29087806  1
  O  O103  1  1.01752422  0.16781659  0.62421139  1
  O  O104  1  1.01752422  0.16781659  0.95754472  1
  O  O105  1  0.51752422  0.66781659  0.29087806  1
  O  O106  1  0.51752422  0.66781659  0.62421139  1
  O  O107  1  0.51752422  0.66781659  0.95754472  1
  O  O108  1  0.48247578  0.83218341  0.12421139  1
  O  O109  1  0.48247578  0.83218341  0.45754472  1
  O  O110  1  0.48247578  0.83218341  0.79087806  1
  O  O111  1  0.98247578  1.33218341  0.12421139  1
  O  O112  1  0.98247578  1.33218341  0.45754472  1
  O  O113  1  0.98247578  1.33218341  0.79087806  1
  O  O114  1  0.98247578  0.83218341  0.29087806  1
  O  O115  1  0.98247578  0.83218341  0.62421139  1
  O  O116  1  0.98247578  0.83218341  0.95754472  1
  O  O117  1  0.48247578  1.33218341  0.29087806  1
  O  O118  1  0.48247578  1.33218341  0.62421139  1
  O  O119  1  0.48247578  1.33218341  0.95754472  1
