# generated using pymatgen
data_Ba5Nb4O15
_symmetry_space_group_name_H-M   'P 1'
_cell_length_a   11.62573444
_cell_length_b   11.62573444
_cell_length_c   11.81684697
_cell_angle_alpha   90.00000000
_cell_angle_beta   90.00000000
_cell_angle_gamma   120.00000000
_symmetry_Int_Tables_number   1
_chemical_formula_structural   Ba5Nb4O15
_chemical_formula_sum   'Ba20 Nb16 O60'
_cell_volume   1383.16197012
_cell_formula_units_Z   4
loop_
 _symmetry_equiv_pos_site_id
 _symmetry_equiv_pos_as_xyz
  1  'x, y, z'
loop_
 _atom_site_type_symbol
 _atom_site_label
 _atom_site_symmetry_multiplicity
 _atom_site_fract_x
 _atom_site_fract_y
 _atom_site_fract_z
 _atom_site_occupancy
  Ba  Ba0  1  0.33333333  0.16666667  0.57111113  1
  Ba  Ba1  1  0.33333333  0.66666667  0.57111113  1
  Ba  Ba2  1  0.83333333  0.16666667  0.57111113  1
  Ba  Ba3  1  0.83333333  0.66666667  0.57111113  1
  Ba  Ba4  1  0.16666667  0.33333333  0.42888887  1
  Ba  Ba5  1  0.16666667  0.83333333  0.42888887  1
  Ba  Ba6  1  0.66666667  0.33333333  0.42888887  1
  Ba  Ba7  1  0.66666667  0.83333333  0.42888887  1
  Ba  Ba8  1  0.33333333  0.16666667  0.20963110  1
  Ba  Ba9  1  0.33333333  0.66666667  0.20963110  1
  Ba  Ba10  1  0.83333333  0.16666667  0.20963110  1
  Ba  Ba11  1  0.83333333  0.66666667  0.20963110  1
  Ba  Ba12  1  0.16666667  0.33333333  0.79036890  1
  Ba  Ba13  1  0.16666667  0.83333333  0.79036890  1
  Ba  Ba14  1  0.66666667  0.33333333  0.79036890  1
  Ba  Ba15  1  0.66666667  0.83333333  0.79036890  1
  Ba  Ba16  1  0.00000000  0.00000000  0.00000000  1
  Ba  Ba17  1  -0.00000000  0.50000000  0.00000000  1
  Ba  Ba18  1  0.50000000  0.00000000  0.00000000  1
  Ba  Ba19  1  0.50000000  0.50000000  0.00000000  1
  Nb  Nb20  1  0.33333333  0.16666667  0.89482076  1
  Nb  Nb21  1  0.33333333  0.66666667  0.89482076  1
  Nb  Nb22  1  0.83333333  0.16666667  0.89482076  1
  Nb  Nb23  1  0.83333333  0.66666667  0.89482076  1
  Nb  Nb24  1  0.16666667  0.33333333  0.10517924  1
  Nb  Nb25  1  0.16666667  0.83333333  0.10517924  1
  Nb  Nb26  1  0.66666667  0.33333333  0.10517924  1
  Nb  Nb27  1  0.66666667  0.83333333  0.10517924  1
  Nb  Nb28  1  0.00000000  0.00000000  0.31749131  1
  Nb  Nb29  1  -0.00000000  0.50000000  0.31749131  1
  Nb  Nb30  1  0.50000000  0.00000000  0.31749131  1
  Nb  Nb31  1  0.50000000  0.50000000  0.31749131  1
  Nb  Nb32  1  0.00000000  0.00000000  0.68250869  1
  Nb  Nb33  1  -0.00000000  0.50000000  0.68250869  1
  Nb  Nb34  1  0.50000000  0.00000000  0.68250869  1
  Nb  Nb35  1  0.50000000  0.50000000  0.68250869  1
  O  O36  1  0.41730265  0.08269735  0.38871458  1
  O  O37  1  0.41730265  0.58269735  0.38871458  1
  O  O38  1  0.91730265  0.08269735  0.38871458  1
  O  O39  1  0.91730265  0.58269735  0.38871458  1
  O  O40  1  0.41730265  0.33460529  0.38871458  1
  O  O41  1  0.41730265  0.83460529  0.38871458  1
  O  O42  1  0.91730265  0.33460529  0.38871458  1
  O  O43  1  0.91730265  0.83460529  0.38871458  1
  O  O44  1  0.16539471  0.08269735  0.38871458  1
  O  O45  1  0.16539471  0.58269735  0.38871458  1
  O  O46  1  0.66539471  0.08269735  0.38871458  1
  O  O47  1  0.66539471  0.58269735  0.38871458  1
  O  O48  1  0.33460529  0.41730265  0.61128542  1
  O  O49  1  0.33460529  0.91730265  0.61128542  1
  O  O50  1  0.83460529  0.41730265  0.61128542  1
  O  O51  1  0.83460529  0.91730265  0.61128542  1
  O  O52  1  0.08269735  0.16539471  0.61128542  1
  O  O53  1  0.08269735  0.66539471  0.61128542  1
  O  O54  1  0.58269735  0.16539471  0.61128542  1
  O  O55  1  0.58269735  0.66539471  0.61128542  1
  O  O56  1  0.08269735  0.41730265  0.61128542  1
  O  O57  1  0.08269735  0.91730265  0.61128542  1
  O  O58  1  0.58269735  0.41730265  0.61128542  1
  O  O59  1  0.58269735  0.91730265  0.61128542  1
  O  O60  1  0.41593573  0.08406427  0.80728453  1
  O  O61  1  0.41593573  0.58406427  0.80728453  1
  O  O62  1  0.91593573  0.08406427  0.80728453  1
  O  O63  1  0.91593573  0.58406427  0.80728453  1
  O  O64  1  0.41593573  0.33187147  0.80728453  1
  O  O65  1  0.41593573  0.83187147  0.80728453  1
  O  O66  1  0.91593573  0.33187147  0.80728453  1
  O  O67  1  0.91593573  0.83187147  0.80728453  1
  O  O68  1  0.16812853  0.08406427  0.80728453  1
  O  O69  1  0.16812853  0.58406427  0.80728453  1
  O  O70  1  0.66812853  0.08406427  0.80728453  1
  O  O71  1  0.66812853  0.58406427  0.80728453  1
  O  O72  1  0.25000000  0.00000000  0.00000000  1
  O  O73  1  0.25000000  0.50000000  0.00000000  1
  O  O74  1  0.75000000  0.00000000  0.00000000  1
  O  O75  1  0.75000000  0.50000000  0.00000000  1
  O  O76  1  0.00000000  0.25000000  0.00000000  1
  O  O77  1  0.00000000  0.75000000  0.00000000  1
  O  O78  1  0.50000000  0.25000000  0.00000000  1
  O  O79  1  0.50000000  0.75000000  0.00000000  1
  O  O80  1  0.25000000  0.25000000  0.00000000  1
  O  O81  1  0.25000000  0.75000000  0.00000000  1
  O  O82  1  0.75000000  0.25000000  0.00000000  1
  O  O83  1  0.75000000  0.75000000  0.00000000  1
  O  O84  1  0.08406427  0.41593573  0.19271547  1
  O  O85  1  0.08406427  0.91593573  0.19271547  1
  O  O86  1  0.58406427  0.41593573  0.19271547  1
  O  O87  1  0.58406427  0.91593573  0.19271547  1
  O  O88  1  0.08406427  0.16812853  0.19271547  1
  O  O89  1  0.08406427  0.66812853  0.19271547  1
  O  O90  1  0.58406427  0.16812853  0.19271547  1
  O  O91  1  0.58406427  0.66812853  0.19271547  1
  O  O92  1  0.33187147  0.41593573  0.19271547  1
  O  O93  1  0.33187147  0.91593573  0.19271547  1
  O  O94  1  0.83187147  0.41593573  0.19271547  1
  O  O95  1  0.83187147  0.91593573  0.19271547  1
