# generated using pymatgen
data_Ba3NaBiO6
_symmetry_space_group_name_H-M   'P 1'
_cell_length_a   10.40503989
_cell_length_b   10.40503989
_cell_length_c   12.12400124
_cell_angle_alpha   90.00000000
_cell_angle_beta   90.00000000
_cell_angle_gamma   120.00000000
_symmetry_Int_Tables_number   1
_chemical_formula_structural   Ba3NaBiO6
_chemical_formula_sum   'Ba18 Na6 Bi6 O36'
_cell_volume   1136.74774926
_cell_formula_units_Z   6
loop_
 _symmetry_equiv_pos_site_id
 _symmetry_equiv_pos_as_xyz
  1  'x, y, z'
loop_
 _atom_site_type_symbol
 _atom_site_label
 _atom_site_symmetry_multiplicity
 _atom_site_fract_x
 _atom_site_fract_y
 _atom_site_fract_z
 _atom_site_occupancy
  Ba  Ba0  1  0.31472667  0.33333333  0.58333333  1
  Ba  Ba1  1  0.98139334  0.66666667  0.91666667  1
  Ba  Ba2  1  0.64806000  1.00000000  1.25000000  1
  Ba  Ba3  1  -0.31472667  -0.33333333  0.41666667  1
  Ba  Ba4  1  0.35194000  -0.00000000  0.75000000  1
  Ba  Ba5  1  0.01860666  0.33333333  1.08333333  1
  Ba  Ba6  1  0.01860666  -0.31472667  0.58333333  1
  Ba  Ba7  1  0.68527333  0.01860666  0.91666667  1
  Ba  Ba8  1  0.35194000  0.35194000  1.25000000  1
  Ba  Ba9  1  0.33333333  0.01860666  0.41666667  1
  Ba  Ba10  1  1.00000000  0.35194000  0.75000000  1
  Ba  Ba11  1  0.66666667  0.68527333  1.08333333  1
  Ba  Ba12  1  -0.01860666  0.31472667  0.41666667  1
  Ba  Ba13  1  0.64806000  0.64806000  0.75000000  1
  Ba  Ba14  1  0.31472667  0.98139334  1.08333333  1
  Ba  Ba15  1  -0.33333333  -0.01860666  0.58333333  1
  Ba  Ba16  1  0.33333333  0.31472667  0.91666667  1
  Ba  Ba17  1  -0.00000000  0.64806000  1.25000000  1
  Na  Na18  1  -0.00000000  -0.00000000  0.75000000  1
  Na  Na19  1  0.66666667  0.33333333  1.08333333  1
  Na  Na20  1  0.33333333  0.66666667  1.41666667  1
  Na  Na21  1  -0.00000000  -0.00000000  0.25000000  1
  Na  Na22  1  0.66666667  0.33333333  0.58333333  1
  Na  Na23  1  0.33333333  0.66666667  0.91666667  1
  Bi  Bi24  1  -0.00000000  -0.00000000  -0.00000000  1
  Bi  Bi25  1  0.66666667  0.33333333  0.33333333  1
  Bi  Bi26  1  0.33333333  0.66666667  0.66666667  1
  Bi  Bi27  1  0.00000000  0.00000000  0.50000000  1
  Bi  Bi28  1  0.66666667  0.33333333  0.83333333  1
  Bi  Bi29  1  0.33333333  0.66666667  1.16666667  1
  O  O30  1  0.35447038  -0.15670575  0.56279662  1
  O  O31  1  1.02113705  0.17662758  0.89612995  1
  O  O32  1  0.68780371  0.50996091  1.22946329  1
  O  O33  1  0.15670575  0.51117613  0.56279662  1
  O  O34  1  0.82337242  0.84450947  0.89612995  1
  O  O35  1  0.49003909  1.17784280  1.22946329  1
  O  O36  1  0.51117613  0.35447038  0.43720338  1
  O  O37  1  1.17784280  0.68780371  0.77053671  1
  O  O38  1  0.84450947  1.02113705  1.10387005  1
  O  O39  1  -0.51117613  -0.35447038  0.56279662  1
  O  O40  1  0.15549053  -0.02113705  0.89612995  1
  O  O41  1  -0.17784280  0.31219629  1.22946329  1
  O  O42  1  -0.02113705  0.15549053  0.60387005  1
  O  O43  1  0.64552962  0.48882387  0.93720338  1
  O  O44  1  0.31219629  0.82215720  1.27053671  1
  O  O45  1  0.17662758  0.02113705  0.60387005  1
  O  O46  1  0.84329425  0.35447038  0.93720338  1
  O  O47  1  0.50996091  0.68780371  1.27053671  1
  O  O48  1  -0.35447038  0.15670575  0.43720338  1
  O  O49  1  0.31219629  0.49003909  0.77053671  1
  O  O50  1  -0.02113705  0.82337242  1.10387005  1
  O  O51  1  -0.15670575  -0.51117613  0.43720338  1
  O  O52  1  0.50996091  -0.17784280  0.77053671  1
  O  O53  1  0.17662758  0.15549053  1.10387005  1
  O  O54  1  0.15549053  0.17662758  0.39612995  1
  O  O55  1  0.82215720  0.50996091  0.72946329  1
  O  O56  1  0.48882387  0.84329425  1.06279662  1
  O  O57  1  0.02113705  -0.15549053  0.39612995  1
  O  O58  1  0.68780371  0.17784280  0.72946329  1
  O  O59  1  0.35447038  0.51117613  1.06279662  1
  O  O60  1  -0.17662758  -0.02113705  0.39612995  1
  O  O61  1  0.49003909  0.31219629  0.72946329  1
  O  O62  1  0.15670575  0.64552962  1.06279662  1
  O  O63  1  -0.15549053  -0.17662758  0.60387005  1
  O  O64  1  0.51117613  0.15670575  0.93720338  1
  O  O65  1  0.17784280  0.49003909  1.27053671  1
