# generated using pymatgen
data_KLa2NbO6
_symmetry_space_group_name_H-M   'P 1'
_cell_length_a   12.70888678
_cell_length_b   11.50971836
_cell_length_c   8.88165597
_cell_angle_alpha   90.00000000
_cell_angle_beta   106.14305090
_cell_angle_gamma   90.00000000
_symmetry_Int_Tables_number   1
_chemical_formula_structural   KLa2NbO6
_chemical_formula_sum   'K8 La16 Nb8 O48'
_cell_volume   1247.94488552
_cell_formula_units_Z   8
loop_
 _symmetry_equiv_pos_site_id
 _symmetry_equiv_pos_as_xyz
  1  'x, y, z'
loop_
 _atom_site_type_symbol
 _atom_site_label
 _atom_site_symmetry_multiplicity
 _atom_site_fract_x
 _atom_site_fract_y
 _atom_site_fract_z
 _atom_site_occupancy
  K  K0  1  0.11588671  0.00000000  0.48165047  1
  K  K1  1  0.11588671  0.50000000  0.48165047  1
  K  K2  1  0.61588671  0.25000000  0.48165047  1
  K  K3  1  0.61588671  0.75000000  0.48165047  1
  K  K4  1  0.88411329  0.00000000  0.51834953  1
  K  K5  1  0.88411329  0.50000000  0.51834953  1
  K  K6  1  1.38411329  0.25000000  0.51834953  1
  K  K7  1  1.38411329  0.75000000  0.51834953  1
  La  La8  1  0.12993127  0.00000000  0.92879832  1
  La  La9  1  0.12993127  0.50000000  0.92879832  1
  La  La10  1  0.62993127  0.25000000  0.92879832  1
  La  La11  1  0.62993127  0.75000000  0.92879832  1
  La  La12  1  0.87006873  -0.00000000  0.07120168  1
  La  La13  1  0.87006873  0.50000000  0.07120168  1
  La  La14  1  1.37006873  0.25000000  0.07120168  1
  La  La15  1  1.37006873  0.75000000  0.07120168  1
  La  La16  1  0.58899098  0.00000000  0.20509710  1
  La  La17  1  0.58899098  0.50000000  0.20509710  1
  La  La18  1  1.08899098  0.25000000  0.20509710  1
  La  La19  1  1.08899098  0.75000000  0.20509710  1
  La  La20  1  0.41100902  -0.00000000  0.79490290  1
  La  La21  1  0.41100902  0.50000000  0.79490290  1
  La  La22  1  0.91100902  0.25000000  0.79490290  1
  La  La23  1  0.91100902  0.75000000  0.79490290  1
  Nb  Nb24  1  0.34114028  0.00000000  0.29594456  1
  Nb  Nb25  1  0.34114028  0.50000000  0.29594456  1
  Nb  Nb26  1  0.84114028  0.25000000  0.29594456  1
  Nb  Nb27  1  0.84114028  0.75000000  0.29594456  1
  Nb  Nb28  1  0.65885972  0.00000000  0.70405544  1
  Nb  Nb29  1  0.65885972  0.50000000  0.70405544  1
  Nb  Nb30  1  1.15885972  0.25000000  0.70405544  1
  Nb  Nb31  1  1.15885972  0.75000000  0.70405544  1
  O  O32  1  0.54766900  0.11615779  0.70882936  1
  O  O33  1  0.54766900  0.61615779  0.70882936  1
  O  O34  1  1.04766900  0.36615779  0.70882936  1
  O  O35  1  1.04766900  0.86615779  0.70882936  1
  O  O36  1  0.45233100  0.11615779  0.29117064  1
  O  O37  1  0.45233100  0.61615779  0.29117064  1
  O  O38  1  0.95233100  0.36615779  0.29117064  1
  O  O39  1  0.95233100  0.86615779  0.29117064  1
  O  O40  1  0.50000000  0.12399567  0.00000000  1
  O  O41  1  0.50000000  0.62399567  0.00000000  1
  O  O42  1  1.00000000  0.37399567  0.00000000  1
  O  O43  1  1.00000000  0.87399567  0.00000000  1
  O  O44  1  0.23629872  -0.11671377  0.16668670  1
  O  O45  1  0.23629872  0.38328623  0.16668670  1
  O  O46  1  0.73629872  0.13328623  0.16668670  1
  O  O47  1  0.73629872  0.63328623  0.16668670  1
  O  O48  1  0.45233100  -0.11615779  0.29117064  1
  O  O49  1  0.45233100  0.38384221  0.29117064  1
  O  O50  1  0.95233100  0.13384221  0.29117064  1
  O  O51  1  0.95233100  0.63384221  0.29117064  1
  O  O52  1  0.76370128  0.11671377  0.83331330  1
  O  O53  1  0.76370128  0.61671377  0.83331330  1
  O  O54  1  1.26370128  0.36671377  0.83331330  1
  O  O55  1  1.26370128  0.86671377  0.83331330  1
  O  O56  1  0.76370128  -0.11671377  0.83331330  1
  O  O57  1  0.76370128  0.38328623  0.83331330  1
  O  O58  1  1.26370128  0.13328623  0.83331330  1
  O  O59  1  1.26370128  0.63328623  0.83331330  1
  O  O60  1  0.67542182  0.00000000  0.50310163  1
  O  O61  1  0.67542182  0.50000000  0.50310163  1
  O  O62  1  1.17542182  0.25000000  0.50310163  1
  O  O63  1  1.17542182  0.75000000  0.50310163  1
  O  O64  1  0.32457818  0.00000000  0.49689837  1
  O  O65  1  0.32457818  0.50000000  0.49689837  1
  O  O66  1  0.82457818  0.25000000  0.49689837  1
  O  O67  1  0.82457818  0.75000000  0.49689837  1
  O  O68  1  0.50000000  -0.12399567  0.00000000  1
  O  O69  1  0.50000000  0.37600433  0.00000000  1
  O  O70  1  1.00000000  0.12600433  0.00000000  1
  O  O71  1  1.00000000  0.62600433  0.00000000  1
  O  O72  1  0.23629872  0.11671377  0.16668670  1
  O  O73  1  0.23629872  0.61671377  0.16668670  1
  O  O74  1  0.73629872  0.36671377  0.16668670  1
  O  O75  1  0.73629872  0.86671377  0.16668670  1
  O  O76  1  0.54766900  -0.11615779  0.70882936  1
  O  O77  1  0.54766900  0.38384221  0.70882936  1
  O  O78  1  1.04766900  0.13384221  0.70882936  1
  O  O79  1  1.04766900  0.63384221  0.70882936  1
