# generated using pymatgen
data_RbBiO2
_symmetry_space_group_name_H-M   'P 1'
_cell_length_a   16.07608081
_cell_length_b   16.74821978
_cell_length_c   17.99860759
_cell_angle_alpha   90.00000000
_cell_angle_beta   123.96800619
_cell_angle_gamma   90.00000000
_symmetry_Int_Tables_number   1
_chemical_formula_structural   RbBiO2
_chemical_formula_sum   'Rb48 Bi48 O96'
_cell_volume   4019.06869887
_cell_formula_units_Z   48
loop_
 _symmetry_equiv_pos_site_id
 _symmetry_equiv_pos_as_xyz
  1  'x, y, z'
loop_
 _atom_site_type_symbol
 _atom_site_label
 _atom_site_symmetry_multiplicity
 _atom_site_fract_x
 _atom_site_fract_y
 _atom_site_fract_z
 _atom_site_occupancy
  Rb  Rb0  1  0.25000000  -0.06693577  0.08333333  1
  Rb  Rb1  1  0.25000000  -0.06693577  0.41666667  1
  Rb  Rb2  1  0.25000000  -0.06693577  0.75000000  1
  Rb  Rb3  1  0.25000000  0.43306423  0.08333333  1
  Rb  Rb4  1  0.25000000  0.43306423  0.41666667  1
  Rb  Rb5  1  0.25000000  0.43306423  0.75000000  1
  Rb  Rb6  1  0.75000000  -0.06693577  0.08333333  1
  Rb  Rb7  1  0.75000000  -0.06693577  0.41666667  1
  Rb  Rb8  1  0.75000000  -0.06693577  0.75000000  1
  Rb  Rb9  1  0.75000000  0.43306423  0.08333333  1
  Rb  Rb10  1  0.75000000  0.43306423  0.41666667  1
  Rb  Rb11  1  0.75000000  0.43306423  0.75000000  1
  Rb  Rb12  1  0.50000000  0.18306423  0.08333333  1
  Rb  Rb13  1  0.50000000  0.18306423  0.41666667  1
  Rb  Rb14  1  0.50000000  0.18306423  0.75000000  1
  Rb  Rb15  1  0.50000000  0.68306423  0.08333333  1
  Rb  Rb16  1  0.50000000  0.68306423  0.41666667  1
  Rb  Rb17  1  0.50000000  0.68306423  0.75000000  1
  Rb  Rb18  1  1.00000000  0.18306423  0.08333333  1
  Rb  Rb19  1  1.00000000  0.18306423  0.41666667  1
  Rb  Rb20  1  1.00000000  0.18306423  0.75000000  1
  Rb  Rb21  1  1.00000000  0.68306423  0.08333333  1
  Rb  Rb22  1  1.00000000  0.68306423  0.41666667  1
  Rb  Rb23  1  1.00000000  0.68306423  0.75000000  1
  Rb  Rb24  1  0.25000000  0.06693577  0.25000000  1
  Rb  Rb25  1  0.25000000  0.06693577  0.58333333  1
  Rb  Rb26  1  0.25000000  0.06693577  0.91666667  1
  Rb  Rb27  1  0.25000000  0.56693577  0.25000000  1
  Rb  Rb28  1  0.25000000  0.56693577  0.58333333  1
  Rb  Rb29  1  0.25000000  0.56693577  0.91666667  1
  Rb  Rb30  1  0.75000000  0.06693577  0.25000000  1
  Rb  Rb31  1  0.75000000  0.06693577  0.58333333  1
  Rb  Rb32  1  0.75000000  0.06693577  0.91666667  1
  Rb  Rb33  1  0.75000000  0.56693577  0.25000000  1
  Rb  Rb34  1  0.75000000  0.56693577  0.58333333  1
  Rb  Rb35  1  0.75000000  0.56693577  0.91666667  1
  Rb  Rb36  1  0.50000000  0.31693577  0.25000000  1
  Rb  Rb37  1  0.50000000  0.31693577  0.58333333  1
  Rb  Rb38  1  0.50000000  0.31693577  0.91666667  1
  Rb  Rb39  1  0.50000000  0.81693577  0.25000000  1
  Rb  Rb40  1  0.50000000  0.81693577  0.58333333  1
  Rb  Rb41  1  0.50000000  0.81693577  0.91666667  1
  Rb  Rb42  1  1.00000000  0.31693577  0.25000000  1
  Rb  Rb43  1  1.00000000  0.31693577  0.58333333  1
  Rb  Rb44  1  1.00000000  0.31693577  0.91666667  1
  Rb  Rb45  1  1.00000000  0.81693577  0.25000000  1
  Rb  Rb46  1  1.00000000  0.81693577  0.58333333  1
  Rb  Rb47  1  1.00000000  0.81693577  0.91666667  1
  Bi  Bi48  1  0.25000000  -0.20075642  0.25000000  1
  Bi  Bi49  1  0.25000000  -0.20075642  0.58333333  1
  Bi  Bi50  1  0.25000000  -0.20075642  0.91666667  1
  Bi  Bi51  1  0.25000000  0.29924358  0.25000000  1
  Bi  Bi52  1  0.25000000  0.29924358  0.58333333  1
  Bi  Bi53  1  0.25000000  0.29924358  0.91666667  1
  Bi  Bi54  1  0.75000000  -0.20075642  0.25000000  1
  Bi  Bi55  1  0.75000000  -0.20075642  0.58333333  1
  Bi  Bi56  1  0.75000000  -0.20075642  0.91666667  1
  Bi  Bi57  1  0.75000000  0.29924358  0.25000000  1
  Bi  Bi58  1  0.75000000  0.29924358  0.58333333  1
  Bi  Bi59  1  0.75000000  0.29924358  0.91666667  1
  Bi  Bi60  1  0.50000000  0.04924358  0.25000000  1
  Bi  Bi61  1  0.50000000  0.04924358  0.58333333  1
  Bi  Bi62  1  0.50000000  0.04924358  0.91666667  1
  Bi  Bi63  1  0.50000000  0.54924358  0.25000000  1
  Bi  Bi64  1  0.50000000  0.54924358  0.58333333  1
  Bi  Bi65  1  0.50000000  0.54924358  0.91666667  1
  Bi  Bi66  1  1.00000000  0.04924358  0.25000000  1
  Bi  Bi67  1  1.00000000  0.04924358  0.58333333  1
  Bi  Bi68  1  1.00000000  0.04924358  0.91666667  1
  Bi  Bi69  1  1.00000000  0.54924358  0.25000000  1
  Bi  Bi70  1  1.00000000  0.54924358  0.58333333  1
  Bi  Bi71  1  1.00000000  0.54924358  0.91666667  1
  Bi  Bi72  1  0.25000000  0.20075642  0.08333333  1
  Bi  Bi73  1  0.25000000  0.20075642  0.41666667  1
  Bi  Bi74  1  0.25000000  0.20075642  0.75000000  1
  Bi  Bi75  1  0.25000000  0.70075642  0.08333333  1
  Bi  Bi76  1  0.25000000  0.70075642  0.41666667  1
  Bi  Bi77  1  0.25000000  0.70075642  0.75000000  1
  Bi  Bi78  1  0.75000000  0.20075642  0.08333333  1
  Bi  Bi79  1  0.75000000  0.20075642  0.41666667  1
  Bi  Bi80  1  0.75000000  0.20075642  0.75000000  1
  Bi  Bi81  1  0.75000000  0.70075642  0.08333333  1
  Bi  Bi82  1  0.75000000  0.70075642  0.41666667  1
  Bi  Bi83  1  0.75000000  0.70075642  0.75000000  1
  Bi  Bi84  1  0.50000000  0.45075642  0.08333333  1
  Bi  Bi85  1  0.50000000  0.45075642  0.41666667  1
  Bi  Bi86  1  0.50000000  0.45075642  0.75000000  1
  Bi  Bi87  1  0.50000000  0.95075642  0.08333333  1
  Bi  Bi88  1  0.50000000  0.95075642  0.41666667  1
  Bi  Bi89  1  0.50000000  0.95075642  0.75000000  1
  Bi  Bi90  1  1.00000000  0.45075642  0.08333333  1
  Bi  Bi91  1  1.00000000  0.45075642  0.41666667  1
  Bi  Bi92  1  1.00000000  0.45075642  0.75000000  1
  Bi  Bi93  1  1.00000000  0.95075642  0.08333333  1
  Bi  Bi94  1  1.00000000  0.95075642  0.41666667  1
  Bi  Bi95  1  1.00000000  0.95075642  0.75000000  1
  O  O96  1  0.40706898  -0.03116942  0.26194352  1
  O  O97  1  0.40706898  -0.03116942  0.59527685  1
  O  O98  1  0.40706898  -0.03116942  0.92861018  1
  O  O99  1  0.40706898  0.46883058  0.26194352  1
  O  O100  1  0.40706898  0.46883058  0.59527685  1
  O  O101  1  0.40706898  0.46883058  0.92861018  1
  O  O102  1  0.90706898  -0.03116942  0.26194352  1
  O  O103  1  0.90706898  -0.03116942  0.59527685  1
  O  O104  1  0.90706898  -0.03116942  0.92861018  1
  O  O105  1  0.90706898  0.46883058  0.26194352  1
  O  O106  1  0.90706898  0.46883058  0.59527685  1
  O  O107  1  0.90706898  0.46883058  0.92861018  1
  O  O108  1  0.65706898  0.21883058  0.26194352  1
  O  O109  1  0.65706898  0.21883058  0.59527685  1
  O  O110  1  0.65706898  0.21883058  0.92861018  1
  O  O111  1  0.65706898  0.71883058  0.26194352  1
  O  O112  1  0.65706898  0.71883058  0.59527685  1
  O  O113  1  0.65706898  0.71883058  0.92861018  1
  O  O114  1  1.15706898  0.21883058  0.26194352  1
  O  O115  1  1.15706898  0.21883058  0.59527685  1
  O  O116  1  1.15706898  0.21883058  0.92861018  1
  O  O117  1  1.15706898  0.71883058  0.26194352  1
  O  O118  1  1.15706898  0.71883058  0.59527685  1
  O  O119  1  1.15706898  0.71883058  0.92861018  1
  O  O120  1  0.09293102  -0.03116942  0.23805648  1
  O  O121  1  0.09293102  -0.03116942  0.57138982  1
  O  O122  1  0.09293102  -0.03116942  0.90472315  1
  O  O123  1  0.09293102  0.46883058  0.23805648  1
  O  O124  1  0.09293102  0.46883058  0.57138982  1
  O  O125  1  0.09293102  0.46883058  0.90472315  1
  O  O126  1  0.59293102  -0.03116942  0.23805648  1
  O  O127  1  0.59293102  -0.03116942  0.57138982  1
  O  O128  1  0.59293102  -0.03116942  0.90472315  1
  O  O129  1  0.59293102  0.46883058  0.23805648  1
  O  O130  1  0.59293102  0.46883058  0.57138982  1
  O  O131  1  0.59293102  0.46883058  0.90472315  1
  O  O132  1  0.34293102  0.21883058  0.23805648  1
  O  O133  1  0.34293102  0.21883058  0.57138982  1
  O  O134  1  0.34293102  0.21883058  0.90472315  1
  O  O135  1  0.34293102  0.71883058  0.23805648  1
  O  O136  1  0.34293102  0.71883058  0.57138982  1
  O  O137  1  0.34293102  0.71883058  0.90472315  1
  O  O138  1  0.84293102  0.21883058  0.23805648  1
  O  O139  1  0.84293102  0.21883058  0.57138982  1
  O  O140  1  0.84293102  0.21883058  0.90472315  1
  O  O141  1  0.84293102  0.71883058  0.23805648  1
  O  O142  1  0.84293102  0.71883058  0.57138982  1
  O  O143  1  0.84293102  0.71883058  0.90472315  1
  O  O144  1  0.40706898  0.03116942  0.09527685  1
  O  O145  1  0.40706898  0.03116942  0.42861018  1
  O  O146  1  0.40706898  0.03116942  0.76194352  1
  O  O147  1  0.40706898  0.53116942  0.09527685  1
  O  O148  1  0.40706898  0.53116942  0.42861018  1
  O  O149  1  0.40706898  0.53116942  0.76194352  1
  O  O150  1  0.90706898  0.03116942  0.09527685  1
  O  O151  1  0.90706898  0.03116942  0.42861018  1
  O  O152  1  0.90706898  0.03116942  0.76194352  1
  O  O153  1  0.90706898  0.53116942  0.09527685  1
  O  O154  1  0.90706898  0.53116942  0.42861018  1
  O  O155  1  0.90706898  0.53116942  0.76194352  1
  O  O156  1  0.65706898  0.28116942  0.09527685  1
  O  O157  1  0.65706898  0.28116942  0.42861018  1
  O  O158  1  0.65706898  0.28116942  0.76194352  1
  O  O159  1  0.65706898  0.78116942  0.09527685  1
  O  O160  1  0.65706898  0.78116942  0.42861018  1
  O  O161  1  0.65706898  0.78116942  0.76194352  1
  O  O162  1  1.15706898  0.28116942  0.09527685  1
  O  O163  1  1.15706898  0.28116942  0.42861018  1
  O  O164  1  1.15706898  0.28116942  0.76194352  1
  O  O165  1  1.15706898  0.78116942  0.09527685  1
  O  O166  1  1.15706898  0.78116942  0.42861018  1
  O  O167  1  1.15706898  0.78116942  0.76194352  1
  O  O168  1  0.09293102  0.03116942  0.07138982  1
  O  O169  1  0.09293102  0.03116942  0.40472315  1
  O  O170  1  0.09293102  0.03116942  0.73805648  1
  O  O171  1  0.09293102  0.53116942  0.07138982  1
  O  O172  1  0.09293102  0.53116942  0.40472315  1
  O  O173  1  0.09293102  0.53116942  0.73805648  1
  O  O174  1  0.59293102  0.03116942  0.07138982  1
  O  O175  1  0.59293102  0.03116942  0.40472315  1
  O  O176  1  0.59293102  0.03116942  0.73805648  1
  O  O177  1  0.59293102  0.53116942  0.07138982  1
  O  O178  1  0.59293102  0.53116942  0.40472315  1
  O  O179  1  0.59293102  0.53116942  0.73805648  1
  O  O180  1  0.34293102  0.28116942  0.07138982  1
  O  O181  1  0.34293102  0.28116942  0.40472315  1
  O  O182  1  0.34293102  0.28116942  0.73805648  1
  O  O183  1  0.34293102  0.78116942  0.07138982  1
  O  O184  1  0.34293102  0.78116942  0.40472315  1
  O  O185  1  0.34293102  0.78116942  0.73805648  1
  O  O186  1  0.84293102  0.28116942  0.07138982  1
  O  O187  1  0.84293102  0.28116942  0.40472315  1
  O  O188  1  0.84293102  0.28116942  0.73805648  1
  O  O189  1  0.84293102  0.78116942  0.07138982  1
  O  O190  1  0.84293102  0.78116942  0.40472315  1
  O  O191  1  0.84293102  0.78116942  0.73805648  1
