# generated using pymatgen
data_K4Be3O5
_symmetry_space_group_name_H-M   'P 1'
_cell_length_a   10.35098562
_cell_length_b   14.49189853
_cell_length_c   10.82314689
_cell_angle_alpha   90.00000000
_cell_angle_beta   118.05019384
_cell_angle_gamma   90.00000000
_symmetry_Int_Tables_number   1
_chemical_formula_structural   K4Be3O5
_chemical_formula_sum   'K32 Be24 O40'
_cell_volume   1432.82437121
_cell_formula_units_Z   8
loop_
 _symmetry_equiv_pos_site_id
 _symmetry_equiv_pos_as_xyz
  1  'x, y, z'
loop_
 _atom_site_type_symbol
 _atom_site_label
 _atom_site_symmetry_multiplicity
 _atom_site_fract_x
 _atom_site_fract_y
 _atom_site_fract_z
 _atom_site_occupancy
  K  K0  1  0.66700034  0.05474929  0.59465476  1
  K  K1  1  0.66700034  0.55474929  0.59465476  1
  K  K2  1  1.16700034  0.30474929  0.59465476  1
  K  K3  1  1.16700034  0.80474929  0.59465476  1
  K  K4  1  0.33299966  0.05474929  0.90534524  1
  K  K5  1  0.33299966  0.55474929  0.90534524  1
  K  K6  1  0.83299966  0.30474929  0.90534524  1
  K  K7  1  0.83299966  0.80474929  0.90534524  1
  K  K8  1  0.33299966  -0.05474929  0.40534524  1
  K  K9  1  0.33299966  0.44525071  0.40534524  1
  K  K10  1  0.83299966  0.19525071  0.40534524  1
  K  K11  1  0.83299966  0.69525071  0.40534524  1
  K  K12  1  0.66700034  -0.05474929  0.09465476  1
  K  K13  1  0.66700034  0.44525071  0.09465476  1
  K  K14  1  1.16700034  0.19525071  0.09465476  1
  K  K15  1  1.16700034  0.69525071  0.09465476  1
  K  K16  1  0.82843018  0.04099821  0.92395950  1
  K  K17  1  0.82843018  0.54099821  0.92395950  1
  K  K18  1  1.32843018  0.29099821  0.92395950  1
  K  K19  1  1.32843018  0.79099821  0.92395950  1
  K  K20  1  0.17156982  0.04099821  0.57604050  1
  K  K21  1  0.17156982  0.54099821  0.57604050  1
  K  K22  1  0.67156982  0.29099821  0.57604050  1
  K  K23  1  0.67156982  0.79099821  0.57604050  1
  K  K24  1  0.17156982  -0.04099821  0.07604050  1
  K  K25  1  0.17156982  0.45900179  0.07604050  1
  K  K26  1  0.67156982  0.20900179  0.07604050  1
  K  K27  1  0.67156982  0.70900179  0.07604050  1
  K  K28  1  0.82843018  -0.04099821  0.42395950  1
  K  K29  1  0.82843018  0.45900179  0.42395950  1
  K  K30  1  1.32843018  0.20900179  0.42395950  1
  K  K31  1  1.32843018  0.70900179  0.42395950  1
  Be  Be32  1  0.50000000  -0.09519981  0.75000000  1
  Be  Be33  1  0.50000000  0.40480019  0.75000000  1
  Be  Be34  1  1.00000000  0.15480019  0.75000000  1
  Be  Be35  1  1.00000000  0.65480019  0.75000000  1
  Be  Be36  1  0.50000000  0.09519981  0.25000000  1
  Be  Be37  1  0.50000000  0.59519981  0.25000000  1
  Be  Be38  1  1.00000000  0.34519981  0.25000000  1
  Be  Be39  1  1.00000000  0.84519981  0.25000000  1
  Be  Be40  1  0.50000000  -0.11530050  0.25000000  1
  Be  Be41  1  0.50000000  0.38469950  0.25000000  1
  Be  Be42  1  1.00000000  0.13469950  0.25000000  1
  Be  Be43  1  1.00000000  0.63469950  0.25000000  1
  Be  Be44  1  0.50000000  0.11530050  0.75000000  1
  Be  Be45  1  0.50000000  0.61530050  0.75000000  1
  Be  Be46  1  1.00000000  0.36530050  0.75000000  1
  Be  Be47  1  1.00000000  0.86530050  0.75000000  1
  Be  Be48  1  0.50000000  0.24039952  0.25000000  1
  Be  Be49  1  0.50000000  0.74039952  0.25000000  1
  Be  Be50  1  1.00000000  0.49039952  0.25000000  1
  Be  Be51  1  1.00000000  0.99039952  0.25000000  1
  Be  Be52  1  0.50000000  -0.24039952  0.75000000  1
  Be  Be53  1  0.50000000  0.25960048  0.75000000  1
  Be  Be54  1  1.00000000  0.00960048  0.75000000  1
  Be  Be55  1  1.00000000  0.50960048  0.75000000  1
  O  O56  1  0.50000000  -0.01029107  0.25000000  1
  O  O57  1  0.50000000  0.48970893  0.25000000  1
  O  O58  1  1.00000000  0.23970893  0.25000000  1
  O  O59  1  1.00000000  0.73970893  0.25000000  1
  O  O60  1  0.50000000  0.01029107  0.75000000  1
  O  O61  1  0.50000000  0.51029107  0.75000000  1
  O  O62  1  1.00000000  0.26029107  0.75000000  1
  O  O63  1  1.00000000  0.76029107  0.75000000  1
  O  O64  1  0.44792870  0.16224625  0.12223621  1
  O  O65  1  0.44792870  0.66224625  0.12223621  1
  O  O66  1  0.94792870  0.41224625  0.12223621  1
  O  O67  1  0.94792870  0.91224625  0.12223621  1
  O  O68  1  0.55207130  0.16224625  0.37776379  1
  O  O69  1  0.55207130  0.66224625  0.37776379  1
  O  O70  1  1.05207130  0.41224625  0.37776379  1
  O  O71  1  1.05207130  0.91224625  0.37776379  1
  O  O72  1  0.55207130  -0.16224625  0.87776379  1
  O  O73  1  0.55207130  0.33775375  0.87776379  1
  O  O74  1  1.05207130  0.08775375  0.87776379  1
  O  O75  1  1.05207130  0.58775375  0.87776379  1
  O  O76  1  0.44792870  -0.16224625  0.62223621  1
  O  O77  1  0.44792870  0.33775375  0.62223621  1
  O  O78  1  0.94792870  0.08775375  0.62223621  1
  O  O79  1  0.94792870  0.58775375  0.62223621  1
  O  O80  1  0.37284031  -0.18032621  0.23288392  1
  O  O81  1  0.37284031  0.31967379  0.23288392  1
  O  O82  1  0.87284031  0.06967379  0.23288392  1
  O  O83  1  0.87284031  0.56967379  0.23288392  1
  O  O84  1  0.62715969  -0.18032621  0.26711608  1
  O  O85  1  0.62715969  0.31967379  0.26711608  1
  O  O86  1  1.12715969  0.06967379  0.26711608  1
  O  O87  1  1.12715969  0.56967379  0.26711608  1
  O  O88  1  0.62715969  0.18032621  0.76711608  1
  O  O89  1  0.62715969  0.68032621  0.76711608  1
  O  O90  1  1.12715969  0.43032621  0.76711608  1
  O  O91  1  1.12715969  0.93032621  0.76711608  1
  O  O92  1  0.37284031  0.18032621  0.73288392  1
  O  O93  1  0.37284031  0.68032621  0.73288392  1
  O  O94  1  0.87284031  0.43032621  0.73288392  1
  O  O95  1  0.87284031  0.93032621  0.73288392  1
