# generated using pymatgen
data_LaTiSbO6
_symmetry_space_group_name_H-M   'P 1'
_cell_length_a   15.68700575
_cell_length_b   15.68700575
_cell_length_c   15.44251032
_cell_angle_alpha   90.00000000
_cell_angle_beta   90.00000000
_cell_angle_gamma   120.00000000
_symmetry_Int_Tables_number   1
_chemical_formula_structural   LaTiSbO6
_chemical_formula_sum   'La27 Ti27 Sb27 O162'
_cell_volume   3291.00576766
_cell_formula_units_Z   27
loop_
 _symmetry_equiv_pos_site_id
 _symmetry_equiv_pos_as_xyz
  1  'x, y, z'
loop_
 _atom_site_type_symbol
 _atom_site_label
 _atom_site_symmetry_multiplicity
 _atom_site_fract_x
 _atom_site_fract_y
 _atom_site_fract_z
 _atom_site_occupancy
  La  La0  1  0.00000000  0.00000000  0.00000000  1
  La  La1  1  0.00000000  0.00000000  0.33333333  1
  La  La2  1  0.00000000  0.00000000  0.66666667  1
  La  La3  1  -0.00000000  0.33333333  0.00000000  1
  La  La4  1  -0.00000000  0.33333333  0.33333333  1
  La  La5  1  -0.00000000  0.33333333  0.66666667  1
  La  La6  1  -0.00000000  0.66666667  0.00000000  1
  La  La7  1  -0.00000000  0.66666667  0.33333333  1
  La  La8  1  -0.00000000  0.66666667  0.66666667  1
  La  La9  1  0.33333333  0.00000000  0.00000000  1
  La  La10  1  0.33333333  0.00000000  0.33333333  1
  La  La11  1  0.33333333  0.00000000  0.66666667  1
  La  La12  1  0.33333333  0.33333333  0.00000000  1
  La  La13  1  0.33333333  0.33333333  0.33333333  1
  La  La14  1  0.33333333  0.33333333  0.66666667  1
  La  La15  1  0.33333333  0.66666667  0.00000000  1
  La  La16  1  0.33333333  0.66666667  0.33333333  1
  La  La17  1  0.33333333  0.66666667  0.66666667  1
  La  La18  1  0.66666667  0.00000000  0.00000000  1
  La  La19  1  0.66666667  0.00000000  0.33333333  1
  La  La20  1  0.66666667  0.00000000  0.66666667  1
  La  La21  1  0.66666667  0.33333333  0.00000000  1
  La  La22  1  0.66666667  0.33333333  0.33333333  1
  La  La23  1  0.66666667  0.33333333  0.66666667  1
  La  La24  1  0.66666667  0.66666667  0.00000000  1
  La  La25  1  0.66666667  0.66666667  0.33333333  1
  La  La26  1  0.66666667  0.66666667  0.66666667  1
  Ti  Ti27  1  0.22222222  0.11111111  0.16666667  1
  Ti  Ti28  1  0.22222222  0.11111111  0.50000000  1
  Ti  Ti29  1  0.22222222  0.11111111  0.83333333  1
  Ti  Ti30  1  0.22222222  0.44444444  0.16666667  1
  Ti  Ti31  1  0.22222222  0.44444444  0.50000000  1
  Ti  Ti32  1  0.22222222  0.44444444  0.83333333  1
  Ti  Ti33  1  0.22222222  0.77777778  0.16666667  1
  Ti  Ti34  1  0.22222222  0.77777778  0.50000000  1
  Ti  Ti35  1  0.22222222  0.77777778  0.83333333  1
  Ti  Ti36  1  0.55555556  0.11111111  0.16666667  1
  Ti  Ti37  1  0.55555556  0.11111111  0.50000000  1
  Ti  Ti38  1  0.55555556  0.11111111  0.83333333  1
  Ti  Ti39  1  0.55555556  0.44444444  0.16666667  1
  Ti  Ti40  1  0.55555556  0.44444444  0.50000000  1
  Ti  Ti41  1  0.55555556  0.44444444  0.83333333  1
  Ti  Ti42  1  0.55555556  0.77777778  0.16666667  1
  Ti  Ti43  1  0.55555556  0.77777778  0.50000000  1
  Ti  Ti44  1  0.55555556  0.77777778  0.83333333  1
  Ti  Ti45  1  0.88888889  0.11111111  0.16666667  1
  Ti  Ti46  1  0.88888889  0.11111111  0.50000000  1
  Ti  Ti47  1  0.88888889  0.11111111  0.83333333  1
  Ti  Ti48  1  0.88888889  0.44444444  0.16666667  1
  Ti  Ti49  1  0.88888889  0.44444444  0.50000000  1
  Ti  Ti50  1  0.88888889  0.44444444  0.83333333  1
  Ti  Ti51  1  0.88888889  0.77777778  0.16666667  1
  Ti  Ti52  1  0.88888889  0.77777778  0.50000000  1
  Ti  Ti53  1  0.88888889  0.77777778  0.83333333  1
  Sb  Sb54  1  0.11111111  0.22222222  0.16666667  1
  Sb  Sb55  1  0.11111111  0.22222222  0.50000000  1
  Sb  Sb56  1  0.11111111  0.22222222  0.83333333  1
  Sb  Sb57  1  0.11111111  0.55555556  0.16666667  1
  Sb  Sb58  1  0.11111111  0.55555556  0.50000000  1
  Sb  Sb59  1  0.11111111  0.55555556  0.83333333  1
  Sb  Sb60  1  0.11111111  0.88888889  0.16666667  1
  Sb  Sb61  1  0.11111111  0.88888889  0.50000000  1
  Sb  Sb62  1  0.11111111  0.88888889  0.83333333  1
  Sb  Sb63  1  0.44444444  0.22222222  0.16666667  1
  Sb  Sb64  1  0.44444444  0.22222222  0.50000000  1
  Sb  Sb65  1  0.44444444  0.22222222  0.83333333  1
  Sb  Sb66  1  0.44444444  0.55555556  0.16666667  1
  Sb  Sb67  1  0.44444444  0.55555556  0.50000000  1
  Sb  Sb68  1  0.44444444  0.55555556  0.83333333  1
  Sb  Sb69  1  0.44444444  0.88888889  0.16666667  1
  Sb  Sb70  1  0.44444444  0.88888889  0.50000000  1
  Sb  Sb71  1  0.44444444  0.88888889  0.83333333  1
  Sb  Sb72  1  0.77777778  0.22222222  0.16666667  1
  Sb  Sb73  1  0.77777778  0.22222222  0.50000000  1
  Sb  Sb74  1  0.77777778  0.22222222  0.83333333  1
  Sb  Sb75  1  0.77777778  0.55555556  0.16666667  1
  Sb  Sb76  1  0.77777778  0.55555556  0.50000000  1
  Sb  Sb77  1  0.77777778  0.55555556  0.83333333  1
  Sb  Sb78  1  0.77777778  0.88888889  0.16666667  1
  Sb  Sb79  1  0.77777778  0.88888889  0.50000000  1
  Sb  Sb80  1  0.77777778  0.88888889  0.83333333  1
  O  O81  1  0.20964112  0.20871544  0.23811262  1
  O  O82  1  0.20964112  0.20871544  0.57144595  1
  O  O83  1  0.20964112  0.20871544  0.90477928  1
  O  O84  1  0.20964112  0.54204877  0.23811262  1
  O  O85  1  0.20964112  0.54204877  0.57144595  1
  O  O86  1  0.20964112  0.54204877  0.90477928  1
  O  O87  1  0.20964112  0.87538211  0.23811262  1
  O  O88  1  0.20964112  0.87538211  0.57144595  1
  O  O89  1  0.20964112  0.87538211  0.90477928  1
  O  O90  1  0.54297445  0.20871544  0.23811262  1
  O  O91  1  0.54297445  0.20871544  0.57144595  1
  O  O92  1  0.54297445  0.20871544  0.90477928  1
  O  O93  1  0.54297445  0.54204877  0.23811262  1
  O  O94  1  0.54297445  0.54204877  0.57144595  1
  O  O95  1  0.54297445  0.54204877  0.90477928  1
  O  O96  1  0.54297445  0.87538211  0.23811262  1
  O  O97  1  0.54297445  0.87538211  0.57144595  1
  O  O98  1  0.54297445  0.87538211  0.90477928  1
  O  O99  1  0.87630778  0.20871544  0.23811262  1
  O  O100  1  0.87630778  0.20871544  0.57144595  1
  O  O101  1  0.87630778  0.20871544  0.90477928  1
  O  O102  1  0.87630778  0.54204877  0.23811262  1
  O  O103  1  0.87630778  0.54204877  0.57144595  1
  O  O104  1  0.87630778  0.54204877  0.90477928  1
  O  O105  1  0.87630778  0.87538211  0.23811262  1
  O  O106  1  0.87630778  0.87538211  0.57144595  1
  O  O107  1  0.87630778  0.87538211  0.90477928  1
  O  O108  1  0.33240766  0.12369222  0.23811262  1
  O  O109  1  0.33240766  0.12369222  0.57144595  1
  O  O110  1  0.33240766  0.12369222  0.90477928  1
  O  O111  1  0.33240766  0.45702555  0.23811262  1
  O  O112  1  0.33240766  0.45702555  0.57144595  1
  O  O113  1  0.33240766  0.45702555  0.90477928  1
  O  O114  1  0.33240766  0.79035888  0.23811262  1
  O  O115  1  0.33240766  0.79035888  0.57144595  1
  O  O116  1  0.33240766  0.79035888  0.90477928  1
  O  O117  1  0.66574099  0.12369222  0.23811262  1
  O  O118  1  0.66574099  0.12369222  0.57144595  1
  O  O119  1  0.66574099  0.12369222  0.90477928  1
  O  O120  1  0.66574099  0.45702555  0.23811262  1
  O  O121  1  0.66574099  0.45702555  0.57144595  1
  O  O122  1  0.66574099  0.45702555  0.90477928  1
  O  O123  1  0.66574099  0.79035888  0.23811262  1
  O  O124  1  0.66574099  0.79035888  0.57144595  1
  O  O125  1  0.66574099  0.79035888  0.90477928  1
  O  O126  1  0.99907433  0.12369222  0.23811262  1
  O  O127  1  0.99907433  0.12369222  0.57144595  1
  O  O128  1  0.99907433  0.12369222  0.90477928  1
  O  O129  1  0.99907433  0.45702555  0.23811262  1
  O  O130  1  0.99907433  0.45702555  0.57144595  1
  O  O131  1  0.99907433  0.45702555  0.90477928  1
  O  O132  1  0.99907433  0.79035888  0.23811262  1
  O  O133  1  0.99907433  0.79035888  0.57144595  1
  O  O134  1  0.99907433  0.79035888  0.90477928  1
  O  O135  1  0.12461789  0.00092567  0.23811262  1
  O  O136  1  0.12461789  0.00092567  0.57144595  1
  O  O137  1  0.12461789  0.00092567  0.90477928  1
  O  O138  1  0.12461789  0.33425901  0.23811262  1
  O  O139  1  0.12461789  0.33425901  0.57144595  1
  O  O140  1  0.12461789  0.33425901  0.90477928  1
  O  O141  1  0.12461789  0.66759234  0.23811262  1
  O  O142  1  0.12461789  0.66759234  0.57144595  1
  O  O143  1  0.12461789  0.66759234  0.90477928  1
  O  O144  1  0.45795123  0.00092567  0.23811262  1
  O  O145  1  0.45795123  0.00092567  0.57144595  1
  O  O146  1  0.45795123  0.00092567  0.90477928  1
  O  O147  1  0.45795123  0.33425901  0.23811262  1
  O  O148  1  0.45795123  0.33425901  0.57144595  1
  O  O149  1  0.45795123  0.33425901  0.90477928  1
  O  O150  1  0.45795123  0.66759234  0.23811262  1
  O  O151  1  0.45795123  0.66759234  0.57144595  1
  O  O152  1  0.45795123  0.66759234  0.90477928  1
  O  O153  1  0.79128456  0.00092567  0.23811262  1
  O  O154  1  0.79128456  0.00092567  0.57144595  1
  O  O155  1  0.79128456  0.00092567  0.90477928  1
  O  O156  1  0.79128456  0.33425901  0.23811262  1
  O  O157  1  0.79128456  0.33425901  0.57144595  1
  O  O158  1  0.79128456  0.33425901  0.90477928  1
  O  O159  1  0.79128456  0.66759234  0.23811262  1
  O  O160  1  0.79128456  0.66759234  0.57144595  1
  O  O161  1  0.79128456  0.66759234  0.90477928  1
  O  O162  1  0.12461789  0.12369222  0.09522072  1
  O  O163  1  0.12461789  0.12369222  0.42855405  1
  O  O164  1  0.12461789  0.12369222  0.76188738  1
  O  O165  1  0.12461789  0.45702555  0.09522072  1
  O  O166  1  0.12461789  0.45702555  0.42855405  1
  O  O167  1  0.12461789  0.45702555  0.76188738  1
  O  O168  1  0.12461789  0.79035888  0.09522072  1
  O  O169  1  0.12461789  0.79035888  0.42855405  1
  O  O170  1  0.12461789  0.79035888  0.76188738  1
  O  O171  1  0.45795123  0.12369222  0.09522072  1
  O  O172  1  0.45795123  0.12369222  0.42855405  1
  O  O173  1  0.45795123  0.12369222  0.76188738  1
  O  O174  1  0.45795123  0.45702555  0.09522072  1
  O  O175  1  0.45795123  0.45702555  0.42855405  1
  O  O176  1  0.45795123  0.45702555  0.76188738  1
  O  O177  1  0.45795123  0.79035888  0.09522072  1
  O  O178  1  0.45795123  0.79035888  0.42855405  1
  O  O179  1  0.45795123  0.79035888  0.76188738  1
  O  O180  1  0.79128456  0.12369222  0.09522072  1
  O  O181  1  0.79128456  0.12369222  0.42855405  1
  O  O182  1  0.79128456  0.12369222  0.76188738  1
  O  O183  1  0.79128456  0.45702555  0.09522072  1
  O  O184  1  0.79128456  0.45702555  0.42855405  1
  O  O185  1  0.79128456  0.45702555  0.76188738  1
  O  O186  1  0.79128456  0.79035888  0.09522072  1
  O  O187  1  0.79128456  0.79035888  0.42855405  1
  O  O188  1  0.79128456  0.79035888  0.76188738  1
  O  O189  1  0.33240766  0.20871544  0.09522072  1
  O  O190  1  0.33240766  0.20871544  0.42855405  1
  O  O191  1  0.33240766  0.20871544  0.76188738  1
  O  O192  1  0.33240766  0.54204877  0.09522072  1
  O  O193  1  0.33240766  0.54204877  0.42855405  1
  O  O194  1  0.33240766  0.54204877  0.76188738  1
  O  O195  1  0.33240766  0.87538211  0.09522072  1
  O  O196  1  0.33240766  0.87538211  0.42855405  1
  O  O197  1  0.33240766  0.87538211  0.76188738  1
  O  O198  1  0.66574099  0.20871544  0.09522072  1
  O  O199  1  0.66574099  0.20871544  0.42855405  1
  O  O200  1  0.66574099  0.20871544  0.76188738  1
  O  O201  1  0.66574099  0.54204877  0.09522072  1
  O  O202  1  0.66574099  0.54204877  0.42855405  1
  O  O203  1  0.66574099  0.54204877  0.76188738  1
  O  O204  1  0.66574099  0.87538211  0.09522072  1
  O  O205  1  0.66574099  0.87538211  0.42855405  1
  O  O206  1  0.66574099  0.87538211  0.76188738  1
  O  O207  1  0.99907433  0.20871544  0.09522072  1
  O  O208  1  0.99907433  0.20871544  0.42855405  1
  O  O209  1  0.99907433  0.20871544  0.76188738  1
  O  O210  1  0.99907433  0.54204877  0.09522072  1
  O  O211  1  0.99907433  0.54204877  0.42855405  1
  O  O212  1  0.99907433  0.54204877  0.76188738  1
  O  O213  1  0.99907433  0.87538211  0.09522072  1
  O  O214  1  0.99907433  0.87538211  0.42855405  1
  O  O215  1  0.99907433  0.87538211  0.76188738  1
  O  O216  1  0.20964112  0.00092567  0.09522072  1
  O  O217  1  0.20964112  0.00092567  0.42855405  1
  O  O218  1  0.20964112  0.00092567  0.76188738  1
  O  O219  1  0.20964112  0.33425901  0.09522072  1
  O  O220  1  0.20964112  0.33425901  0.42855405  1
  O  O221  1  0.20964112  0.33425901  0.76188738  1
  O  O222  1  0.20964112  0.66759234  0.09522072  1
  O  O223  1  0.20964112  0.66759234  0.42855405  1
  O  O224  1  0.20964112  0.66759234  0.76188738  1
  O  O225  1  0.54297445  0.00092567  0.09522072  1
  O  O226  1  0.54297445  0.00092567  0.42855405  1
  O  O227  1  0.54297445  0.00092567  0.76188738  1
  O  O228  1  0.54297445  0.33425901  0.09522072  1
  O  O229  1  0.54297445  0.33425901  0.42855405  1
  O  O230  1  0.54297445  0.33425901  0.76188738  1
  O  O231  1  0.54297445  0.66759234  0.09522072  1
  O  O232  1  0.54297445  0.66759234  0.42855405  1
  O  O233  1  0.54297445  0.66759234  0.76188738  1
  O  O234  1  0.87630778  0.00092567  0.09522072  1
  O  O235  1  0.87630778  0.00092567  0.42855405  1
  O  O236  1  0.87630778  0.00092567  0.76188738  1
  O  O237  1  0.87630778  0.33425901  0.09522072  1
  O  O238  1  0.87630778  0.33425901  0.42855405  1
  O  O239  1  0.87630778  0.33425901  0.76188738  1
  O  O240  1  0.87630778  0.66759234  0.09522072  1
  O  O241  1  0.87630778  0.66759234  0.42855405  1
  O  O242  1  0.87630778  0.66759234  0.76188738  1
