# generated using pymatgen
data_BaNb2O6
_symmetry_space_group_name_H-M   'P 1'
_cell_length_a   12.25823795
_cell_length_b   10.47509554
_cell_length_c   11.76823152
_cell_angle_alpha   90.00000000
_cell_angle_beta   90.00000000
_cell_angle_gamma   90.00000000
_symmetry_Int_Tables_number   1
_chemical_formula_structural   BaNb2O6
_chemical_formula_sum   'Ba12 Nb24 O72'
_cell_volume   1511.11405064
_cell_formula_units_Z   12
loop_
 _symmetry_equiv_pos_site_id
 _symmetry_equiv_pos_as_xyz
  1  'x, y, z'
loop_
 _atom_site_type_symbol
 _atom_site_label
 _atom_site_symmetry_multiplicity
 _atom_site_fract_x
 _atom_site_fract_y
 _atom_site_fract_z
 _atom_site_occupancy
  Ba  Ba0  1  0.00000000  0.00000000  0.00000000  1
  Ba  Ba1  1  0.00000000  0.00000000  0.33333333  1
  Ba  Ba2  1  0.00000000  0.00000000  0.66666667  1
  Ba  Ba3  1  0.50000000  0.00000000  0.00000000  1
  Ba  Ba4  1  0.50000000  0.00000000  0.33333333  1
  Ba  Ba5  1  0.50000000  0.00000000  0.66666667  1
  Ba  Ba6  1  0.25000000  0.50000000  0.00000000  1
  Ba  Ba7  1  0.25000000  0.50000000  0.33333333  1
  Ba  Ba8  1  0.25000000  0.50000000  0.66666667  1
  Ba  Ba9  1  0.75000000  0.50000000  0.00000000  1
  Ba  Ba10  1  0.75000000  0.50000000  0.33333333  1
  Ba  Ba11  1  0.75000000  0.50000000  0.66666667  1
  Nb  Nb12  1  0.27465004  0.15123964  0.16666667  1
  Nb  Nb13  1  0.27465004  0.15123964  0.50000000  1
  Nb  Nb14  1  0.27465004  0.15123964  0.83333333  1
  Nb  Nb15  1  0.77465004  0.15123964  0.16666667  1
  Nb  Nb16  1  0.77465004  0.15123964  0.50000000  1
  Nb  Nb17  1  0.77465004  0.15123964  0.83333333  1
  Nb  Nb18  1  0.02465004  0.34876036  0.16666667  1
  Nb  Nb19  1  0.02465004  0.34876036  0.50000000  1
  Nb  Nb20  1  0.02465004  0.34876036  0.83333333  1
  Nb  Nb21  1  0.52465004  0.34876036  0.16666667  1
  Nb  Nb22  1  0.52465004  0.34876036  0.50000000  1
  Nb  Nb23  1  0.52465004  0.34876036  0.83333333  1
  Nb  Nb24  1  0.22534996  0.84876036  0.16666667  1
  Nb  Nb25  1  0.22534996  0.84876036  0.50000000  1
  Nb  Nb26  1  0.22534996  0.84876036  0.83333333  1
  Nb  Nb27  1  0.72534996  0.84876036  0.16666667  1
  Nb  Nb28  1  0.72534996  0.84876036  0.50000000  1
  Nb  Nb29  1  0.72534996  0.84876036  0.83333333  1
  Nb  Nb30  1  0.47534996  0.65123964  0.16666667  1
  Nb  Nb31  1  0.47534996  0.65123964  0.50000000  1
  Nb  Nb32  1  0.47534996  0.65123964  0.83333333  1
  Nb  Nb33  1  0.97534996  0.65123964  0.16666667  1
  Nb  Nb34  1  0.97534996  0.65123964  0.50000000  1
  Nb  Nb35  1  0.97534996  0.65123964  0.83333333  1
  O  O36  1  0.29808820  0.15179630  0.00000000  1
  O  O37  1  0.29808820  0.15179630  0.33333333  1
  O  O38  1  0.29808820  0.15179630  0.66666667  1
  O  O39  1  0.79808820  0.15179630  0.00000000  1
  O  O40  1  0.79808820  0.15179630  0.33333333  1
  O  O41  1  0.79808820  0.15179630  0.66666667  1
  O  O42  1  0.04808820  0.34820370  0.00000000  1
  O  O43  1  0.04808820  0.34820370  0.33333333  1
  O  O44  1  0.04808820  0.34820370  0.66666667  1
  O  O45  1  0.54808820  0.34820370  0.00000000  1
  O  O46  1  0.54808820  0.34820370  0.33333333  1
  O  O47  1  0.54808820  0.34820370  0.66666667  1
  O  O48  1  0.20191180  0.84820370  0.00000000  1
  O  O49  1  0.20191180  0.84820370  0.33333333  1
  O  O50  1  0.20191180  0.84820370  0.66666667  1
  O  O51  1  0.70191180  0.84820370  0.00000000  1
  O  O52  1  0.70191180  0.84820370  0.33333333  1
  O  O53  1  0.70191180  0.84820370  0.66666667  1
  O  O54  1  0.45191180  0.65179630  0.00000000  1
  O  O55  1  0.45191180  0.65179630  0.33333333  1
  O  O56  1  0.45191180  0.65179630  0.66666667  1
  O  O57  1  0.95191180  0.65179630  0.00000000  1
  O  O58  1  0.95191180  0.65179630  0.33333333  1
  O  O59  1  0.95191180  0.65179630  0.66666667  1
  O  O60  1  0.44498898  0.19318491  0.16666667  1
  O  O61  1  0.44498898  0.19318491  0.50000000  1
  O  O62  1  0.44498898  0.19318491  0.83333333  1
  O  O63  1  0.94498898  0.19318491  0.16666667  1
  O  O64  1  0.94498898  0.19318491  0.50000000  1
  O  O65  1  0.94498898  0.19318491  0.83333333  1
  O  O66  1  0.19498898  0.30681509  0.16666667  1
  O  O67  1  0.19498898  0.30681509  0.50000000  1
  O  O68  1  0.19498898  0.30681509  0.83333333  1
  O  O69  1  0.69498898  0.30681509  0.16666667  1
  O  O70  1  0.69498898  0.30681509  0.50000000  1
  O  O71  1  0.69498898  0.30681509  0.83333333  1
  O  O72  1  0.40135655  0.46024493  0.16666667  1
  O  O73  1  0.40135655  0.46024493  0.50000000  1
  O  O74  1  0.40135655  0.46024493  0.83333333  1
  O  O75  1  0.90135655  0.46024493  0.16666667  1
  O  O76  1  0.90135655  0.46024493  0.50000000  1
  O  O77  1  0.90135655  0.46024493  0.83333333  1
  O  O78  1  0.15135655  0.03975507  0.16666667  1
  O  O79  1  0.15135655  0.03975507  0.50000000  1
  O  O80  1  0.15135655  0.03975507  0.83333333  1
  O  O81  1  0.65135655  0.03975507  0.16666667  1
  O  O82  1  0.65135655  0.03975507  0.50000000  1
  O  O83  1  0.65135655  0.03975507  0.83333333  1
  O  O84  1  0.09864345  0.53975507  0.16666667  1
  O  O85  1  0.09864345  0.53975507  0.50000000  1
  O  O86  1  0.09864345  0.53975507  0.83333333  1
  O  O87  1  0.59864345  0.53975507  0.16666667  1
  O  O88  1  0.59864345  0.53975507  0.50000000  1
  O  O89  1  0.59864345  0.53975507  0.83333333  1
  O  O90  1  0.34864345  0.96024493  0.16666667  1
  O  O91  1  0.34864345  0.96024493  0.50000000  1
  O  O92  1  0.34864345  0.96024493  0.83333333  1
  O  O93  1  0.84864345  0.96024493  0.16666667  1
  O  O94  1  0.84864345  0.96024493  0.50000000  1
  O  O95  1  0.84864345  0.96024493  0.83333333  1
  O  O96  1  0.30501102  0.69318491  0.16666667  1
  O  O97  1  0.30501102  0.69318491  0.50000000  1
  O  O98  1  0.30501102  0.69318491  0.83333333  1
  O  O99  1  0.80501102  0.69318491  0.16666667  1
  O  O100  1  0.80501102  0.69318491  0.50000000  1
  O  O101  1  0.80501102  0.69318491  0.83333333  1
  O  O102  1  0.05501102  0.80681509  0.16666667  1
  O  O103  1  0.05501102  0.80681509  0.50000000  1
  O  O104  1  0.05501102  0.80681509  0.83333333  1
  O  O105  1  0.55501102  0.80681509  0.16666667  1
  O  O106  1  0.55501102  0.80681509  0.50000000  1
  O  O107  1  0.55501102  0.80681509  0.83333333  1
