# generated using pymatgen
data_K2ZnO2
_symmetry_space_group_name_H-M   'P 1'
_cell_length_a   11.92700392
_cell_length_b   10.50349909
_cell_length_c   10.60819176
_cell_angle_alpha   90.00000000
_cell_angle_beta   90.00000000
_cell_angle_gamma   90.00000000
_symmetry_Int_Tables_number   1
_chemical_formula_structural   K2ZnO2
_chemical_formula_sum   'K32 Zn16 O32'
_cell_volume   1328.94413872
_cell_formula_units_Z   16
loop_
 _symmetry_equiv_pos_site_id
 _symmetry_equiv_pos_as_xyz
  1  'x, y, z'
loop_
 _atom_site_type_symbol
 _atom_site_label
 _atom_site_symmetry_multiplicity
 _atom_site_fract_x
 _atom_site_fract_y
 _atom_site_fract_z
 _atom_site_occupancy
  K  K0  1  0.17941127  0.15233413  0.25000000  1
  K  K1  1  0.17941127  0.15233413  0.75000000  1
  K  K2  1  0.67941127  0.15233413  0.25000000  1
  K  K3  1  0.67941127  0.15233413  0.75000000  1
  K  K4  1  0.42941127  0.65233413  0.50000000  1
  K  K5  1  0.42941127  0.65233413  1.00000000  1
  K  K6  1  0.92941127  0.65233413  0.50000000  1
  K  K7  1  0.92941127  0.65233413  1.00000000  1
  K  K8  1  0.07058873  0.34766587  -0.00000000  1
  K  K9  1  0.07058873  0.34766587  0.50000000  1
  K  K10  1  0.57058873  0.34766587  -0.00000000  1
  K  K11  1  0.57058873  0.34766587  0.50000000  1
  K  K12  1  0.32058873  0.84766587  0.25000000  1
  K  K13  1  0.32058873  0.84766587  0.75000000  1
  K  K14  1  0.82058873  0.84766587  0.25000000  1
  K  K15  1  0.82058873  0.84766587  0.75000000  1
  K  K16  1  0.32058873  0.15233413  0.00000000  1
  K  K17  1  0.32058873  0.15233413  0.50000000  1
  K  K18  1  0.82058873  0.15233413  0.00000000  1
  K  K19  1  0.82058873  0.15233413  0.50000000  1
  K  K20  1  0.57058873  0.65233413  0.25000000  1
  K  K21  1  0.57058873  0.65233413  0.75000000  1
  K  K22  1  1.07058873  0.65233413  0.25000000  1
  K  K23  1  1.07058873  0.65233413  0.75000000  1
  K  K24  1  -0.07058873  0.34766587  0.25000000  1
  K  K25  1  -0.07058873  0.34766587  0.75000000  1
  K  K26  1  0.42941127  0.34766587  0.25000000  1
  K  K27  1  0.42941127  0.34766587  0.75000000  1
  K  K28  1  0.17941127  0.84766587  0.50000000  1
  K  K29  1  0.17941127  0.84766587  1.00000000  1
  K  K30  1  0.67941127  0.84766587  0.50000000  1
  K  K31  1  0.67941127  0.84766587  1.00000000  1
  Zn  Zn32  1  0.00000000  0.00000000  0.12500000  1
  Zn  Zn33  1  0.00000000  0.00000000  0.62500000  1
  Zn  Zn34  1  0.50000000  0.00000000  0.12500000  1
  Zn  Zn35  1  0.50000000  0.00000000  0.62500000  1
  Zn  Zn36  1  0.25000000  0.50000000  0.37500000  1
  Zn  Zn37  1  0.25000000  0.50000000  0.87500000  1
  Zn  Zn38  1  0.75000000  0.50000000  0.37500000  1
  Zn  Zn39  1  0.75000000  0.50000000  0.87500000  1
  Zn  Zn40  1  0.00000000  0.00000000  0.37500000  1
  Zn  Zn41  1  0.00000000  0.00000000  0.87500000  1
  Zn  Zn42  1  0.50000000  0.00000000  0.37500000  1
  Zn  Zn43  1  0.50000000  0.00000000  0.87500000  1
  Zn  Zn44  1  0.25000000  0.50000000  0.62500000  1
  Zn  Zn45  1  0.25000000  0.50000000  1.12500000  1
  Zn  Zn46  1  0.75000000  0.50000000  0.62500000  1
  Zn  Zn47  1  0.75000000  0.50000000  1.12500000  1
  O  O48  1  0.15985501  0.59436146  0.00000000  1
  O  O49  1  0.15985501  0.59436146  0.50000000  1
  O  O50  1  0.65985501  0.59436146  0.00000000  1
  O  O51  1  0.65985501  0.59436146  0.50000000  1
  O  O52  1  0.40985501  1.09436146  0.25000000  1
  O  O53  1  0.40985501  1.09436146  0.75000000  1
  O  O54  1  0.90985501  1.09436146  0.25000000  1
  O  O55  1  0.90985501  1.09436146  0.75000000  1
  O  O56  1  0.09014499  -0.09436146  0.25000000  1
  O  O57  1  0.09014499  -0.09436146  0.75000000  1
  O  O58  1  0.59014499  -0.09436146  0.25000000  1
  O  O59  1  0.59014499  -0.09436146  0.75000000  1
  O  O60  1  0.34014499  0.40563854  0.50000000  1
  O  O61  1  0.34014499  0.40563854  1.00000000  1
  O  O62  1  0.84014499  0.40563854  0.50000000  1
  O  O63  1  0.84014499  0.40563854  1.00000000  1
  O  O64  1  0.15985501  0.40563854  0.25000000  1
  O  O65  1  0.15985501  0.40563854  0.75000000  1
  O  O66  1  0.65985501  0.40563854  0.25000000  1
  O  O67  1  0.65985501  0.40563854  0.75000000  1
  O  O68  1  0.40985501  0.90563854  0.50000000  1
  O  O69  1  0.40985501  0.90563854  1.00000000  1
  O  O70  1  0.90985501  0.90563854  0.50000000  1
  O  O71  1  0.90985501  0.90563854  1.00000000  1
  O  O72  1  0.09014499  0.09436146  -0.00000000  1
  O  O73  1  0.09014499  0.09436146  0.50000000  1
  O  O74  1  0.59014499  0.09436146  -0.00000000  1
  O  O75  1  0.59014499  0.09436146  0.50000000  1
  O  O76  1  0.34014499  0.59436146  0.25000000  1
  O  O77  1  0.34014499  0.59436146  0.75000000  1
  O  O78  1  0.84014499  0.59436146  0.25000000  1
  O  O79  1  0.84014499  0.59436146  0.75000000  1
