# generated using pymatgen
data_SnB4O7
_symmetry_space_group_name_H-M   'P 1'
_cell_length_a   10.85666799
_cell_length_b   13.32961217
_cell_length_c   12.68943013
_cell_angle_alpha   90.00000000
_cell_angle_beta   90.00000000
_cell_angle_gamma   90.00000000
_symmetry_Int_Tables_number   1
_chemical_formula_structural   SnB4O7
_chemical_formula_sum   'Sn18 B72 O126'
_cell_volume   1836.35308648
_cell_formula_units_Z   18
loop_
 _symmetry_equiv_pos_site_id
 _symmetry_equiv_pos_as_xyz
  1  'x, y, z'
loop_
 _atom_site_type_symbol
 _atom_site_label
 _atom_site_symmetry_multiplicity
 _atom_site_fract_x
 _atom_site_fract_y
 _atom_site_fract_z
 _atom_site_occupancy
  Sn  Sn0  1  0.50000000  0.27735572  0.19924104  1
  Sn  Sn1  1  0.50000000  0.27735572  0.53257437  1
  Sn  Sn2  1  0.50000000  0.27735572  0.86590771  1
  Sn  Sn3  1  0.50000000  0.61068905  0.19924104  1
  Sn  Sn4  1  0.50000000  0.61068905  0.53257437  1
  Sn  Sn5  1  0.50000000  0.61068905  0.86590771  1
  Sn  Sn6  1  0.50000000  0.94402239  0.19924104  1
  Sn  Sn7  1  0.50000000  0.94402239  0.53257437  1
  Sn  Sn8  1  0.50000000  0.94402239  0.86590771  1
  Sn  Sn9  1  0.00000000  0.05597761  0.03257437  1
  Sn  Sn10  1  0.00000000  0.05597761  0.36590771  1
  Sn  Sn11  1  0.00000000  0.05597761  0.69924104  1
  Sn  Sn12  1  0.00000000  0.38931095  0.03257437  1
  Sn  Sn13  1  0.00000000  0.38931095  0.36590771  1
  Sn  Sn14  1  0.00000000  0.38931095  0.69924104  1
  Sn  Sn15  1  0.00000000  0.72264428  0.03257437  1
  Sn  Sn16  1  0.00000000  0.72264428  0.36590771  1
  Sn  Sn17  1  0.00000000  0.72264428  0.69924104  1
  B  B18  1  0.87775626  0.22417605  0.18518623  1
  B  B19  1  0.87775626  0.22417605  0.51851956  1
  B  B20  1  0.87775626  0.22417605  0.85185290  1
  B  B21  1  0.87775626  0.55750938  0.18518623  1
  B  B22  1  0.87775626  0.55750938  0.51851956  1
  B  B23  1  0.87775626  0.55750938  0.85185290  1
  B  B24  1  0.87775626  0.89084272  0.18518623  1
  B  B25  1  0.87775626  0.89084272  0.51851956  1
  B  B26  1  0.87775626  0.89084272  0.85185290  1
  B  B27  1  0.24896767  0.27473215  0.00942114  1
  B  B28  1  0.24896767  0.27473215  0.34275447  1
  B  B29  1  0.24896767  0.27473215  0.67608781  1
  B  B30  1  0.24896767  0.60806548  0.00942114  1
  B  B31  1  0.24896767  0.60806548  0.34275447  1
  B  B32  1  0.24896767  0.60806548  0.67608781  1
  B  B33  1  0.24896767  0.94139882  0.00942114  1
  B  B34  1  0.24896767  0.94139882  0.34275447  1
  B  B35  1  0.24896767  0.94139882  0.67608781  1
  B  B36  1  0.25103233  0.05860118  0.17608781  1
  B  B37  1  0.25103233  0.05860118  0.50942114  1
  B  B38  1  0.25103233  0.05860118  0.84275447  1
  B  B39  1  0.25103233  0.39193452  0.17608781  1
  B  B40  1  0.25103233  0.39193452  0.50942114  1
  B  B41  1  0.25103233  0.39193452  0.84275447  1
  B  B42  1  0.25103233  0.72526785  0.17608781  1
  B  B43  1  0.25103233  0.72526785  0.50942114  1
  B  B44  1  0.25103233  0.72526785  0.84275447  1
  B  B45  1  0.62224374  0.10915728  0.01851956  1
  B  B46  1  0.62224374  0.10915728  0.35185290  1
  B  B47  1  0.62224374  0.10915728  0.68518623  1
  B  B48  1  0.62224374  0.44249062  0.01851956  1
  B  B49  1  0.62224374  0.44249062  0.35185290  1
  B  B50  1  0.62224374  0.44249062  0.68518623  1
  B  B51  1  0.62224374  0.77582395  0.01851956  1
  B  B52  1  0.62224374  0.77582395  0.35185290  1
  B  B53  1  0.62224374  0.77582395  0.68518623  1
  B  B54  1  0.37775626  0.10915728  0.01851956  1
  B  B55  1  0.37775626  0.10915728  0.35185290  1
  B  B56  1  0.37775626  0.10915728  0.68518623  1
  B  B57  1  0.37775626  0.44249062  0.01851956  1
  B  B58  1  0.37775626  0.44249062  0.35185290  1
  B  B59  1  0.37775626  0.44249062  0.68518623  1
  B  B60  1  0.37775626  0.77582395  0.01851956  1
  B  B61  1  0.37775626  0.77582395  0.35185290  1
  B  B62  1  0.37775626  0.77582395  0.68518623  1
  B  B63  1  0.12224374  0.22417605  0.18518623  1
  B  B64  1  0.12224374  0.22417605  0.51851956  1
  B  B65  1  0.12224374  0.22417605  0.85185290  1
  B  B66  1  0.12224374  0.55750938  0.18518623  1
  B  B67  1  0.12224374  0.55750938  0.51851956  1
  B  B68  1  0.12224374  0.55750938  0.85185290  1
  B  B69  1  0.12224374  0.89084272  0.18518623  1
  B  B70  1  0.12224374  0.89084272  0.51851956  1
  B  B71  1  0.12224374  0.89084272  0.85185290  1
  B  B72  1  0.75103233  0.27473215  0.00942114  1
  B  B73  1  0.75103233  0.27473215  0.34275447  1
  B  B74  1  0.75103233  0.27473215  0.67608781  1
  B  B75  1  0.75103233  0.60806548  0.00942114  1
  B  B76  1  0.75103233  0.60806548  0.34275447  1
  B  B77  1  0.75103233  0.60806548  0.67608781  1
  B  B78  1  0.75103233  0.94139882  0.00942114  1
  B  B79  1  0.75103233  0.94139882  0.34275447  1
  B  B80  1  0.75103233  0.94139882  0.67608781  1
  B  B81  1  0.74896767  0.05860118  0.17608781  1
  B  B82  1  0.74896767  0.05860118  0.50942114  1
  B  B83  1  0.74896767  0.05860118  0.84275447  1
  B  B84  1  0.74896767  0.39193452  0.17608781  1
  B  B85  1  0.74896767  0.39193452  0.50942114  1
  B  B86  1  0.74896767  0.39193452  0.84275447  1
  B  B87  1  0.74896767  0.72526785  0.17608781  1
  B  B88  1  0.74896767  0.72526785  0.50942114  1
  B  B89  1  0.74896767  0.72526785  0.84275447  1
  O  O90  1  0.50000000  0.07686959  0.31521993  1
  O  O91  1  0.50000000  0.07686959  0.64855326  1
  O  O92  1  0.50000000  0.07686959  0.98188660  1
  O  O93  1  0.50000000  0.41020293  0.31521993  1
  O  O94  1  0.50000000  0.41020293  0.64855326  1
  O  O95  1  0.50000000  0.41020293  0.98188660  1
  O  O96  1  0.50000000  0.74353626  0.31521993  1
  O  O97  1  0.50000000  0.74353626  0.64855326  1
  O  O98  1  0.50000000  0.74353626  0.98188660  1
  O  O99  1  0.00000000  0.25646374  0.14855326  1
  O  O100  1  0.00000000  0.25646374  0.48188660  1
  O  O101  1  0.00000000  0.25646374  0.81521993  1
  O  O102  1  0.00000000  0.58979707  0.14855326  1
  O  O103  1  0.00000000  0.58979707  0.48188660  1
  O  O104  1  0.00000000  0.58979707  0.81521993  1
  O  O105  1  0.00000000  0.92313041  0.14855326  1
  O  O106  1  0.00000000  0.92313041  0.48188660  1
  O  O107  1  0.00000000  0.92313041  0.81521993  1
  O  O108  1  0.78056122  0.29004254  0.12752115  1
  O  O109  1  0.78056122  0.29004254  0.46085449  1
  O  O110  1  0.78056122  0.29004254  0.79418782  1
  O  O111  1  0.78056122  0.62337587  0.12752115  1
  O  O112  1  0.78056122  0.62337587  0.46085449  1
  O  O113  1  0.78056122  0.62337587  0.79418782  1
  O  O114  1  0.78056122  0.95670921  0.12752115  1
  O  O115  1  0.78056122  0.95670921  0.46085449  1
  O  O116  1  0.78056122  0.95670921  0.79418782  1
  O  O117  1  0.71943878  0.04329079  0.29418782  1
  O  O118  1  0.71943878  0.04329079  0.62752115  1
  O  O119  1  0.71943878  0.04329079  0.96085449  1
  O  O120  1  0.71943878  0.37662413  0.29418782  1
  O  O121  1  0.71943878  0.37662413  0.62752115  1
  O  O122  1  0.71943878  0.37662413  0.96085449  1
  O  O123  1  0.71943878  0.70995746  0.29418782  1
  O  O124  1  0.71943878  0.70995746  0.62752115  1
  O  O125  1  0.71943878  0.70995746  0.96085449  1
  O  O126  1  0.28056122  0.04329079  0.29418782  1
  O  O127  1  0.28056122  0.04329079  0.62752115  1
  O  O128  1  0.28056122  0.04329079  0.96085449  1
  O  O129  1  0.28056122  0.37662413  0.29418782  1
  O  O130  1  0.28056122  0.37662413  0.62752115  1
  O  O131  1  0.28056122  0.37662413  0.96085449  1
  O  O132  1  0.28056122  0.70995746  0.29418782  1
  O  O133  1  0.28056122  0.70995746  0.62752115  1
  O  O134  1  0.28056122  0.70995746  0.96085449  1
  O  O135  1  0.21943878  0.29004254  0.12752115  1
  O  O136  1  0.21943878  0.29004254  0.46085449  1
  O  O137  1  0.21943878  0.29004254  0.79418782  1
  O  O138  1  0.21943878  0.62337587  0.12752115  1
  O  O139  1  0.21943878  0.62337587  0.46085449  1
  O  O140  1  0.21943878  0.62337587  0.79418782  1
  O  O141  1  0.21943878  0.95670921  0.12752115  1
  O  O142  1  0.21943878  0.95670921  0.46085449  1
  O  O143  1  0.21943878  0.95670921  0.79418782  1
  O  O144  1  0.85734997  0.11937093  0.15895656  1
  O  O145  1  0.85734997  0.11937093  0.49228989  1
  O  O146  1  0.85734997  0.11937093  0.82562323  1
  O  O147  1  0.85734997  0.45270426  0.15895656  1
  O  O148  1  0.85734997  0.45270426  0.49228989  1
  O  O149  1  0.85734997  0.45270426  0.82562323  1
  O  O150  1  0.85734997  0.78603759  0.15895656  1
  O  O151  1  0.85734997  0.78603759  0.49228989  1
  O  O152  1  0.85734997  0.78603759  0.82562323  1
  O  O153  1  0.64265003  0.21396241  0.32562323  1
  O  O154  1  0.64265003  0.21396241  0.65895656  1
  O  O155  1  0.64265003  0.21396241  0.99228989  1
  O  O156  1  0.64265003  0.54729574  0.32562323  1
  O  O157  1  0.64265003  0.54729574  0.65895656  1
  O  O158  1  0.64265003  0.54729574  0.99228989  1
  O  O159  1  0.64265003  0.88062907  0.32562323  1
  O  O160  1  0.64265003  0.88062907  0.65895656  1
  O  O161  1  0.64265003  0.88062907  0.99228989  1
  O  O162  1  0.35734997  0.21396241  0.32562323  1
  O  O163  1  0.35734997  0.21396241  0.65895656  1
  O  O164  1  0.35734997  0.21396241  0.99228989  1
  O  O165  1  0.35734997  0.54729574  0.32562323  1
  O  O166  1  0.35734997  0.54729574  0.65895656  1
  O  O167  1  0.35734997  0.54729574  0.99228989  1
  O  O168  1  0.35734997  0.88062907  0.32562323  1
  O  O169  1  0.35734997  0.88062907  0.65895656  1
  O  O170  1  0.35734997  0.88062907  0.99228989  1
  O  O171  1  0.14265003  0.11937093  0.15895656  1
  O  O172  1  0.14265003  0.11937093  0.49228989  1
  O  O173  1  0.14265003  0.11937093  0.82562323  1
  O  O174  1  0.14265003  0.45270426  0.15895656  1
  O  O175  1  0.14265003  0.45270426  0.49228989  1
  O  O176  1  0.14265003  0.45270426  0.82562323  1
  O  O177  1  0.14265003  0.78603759  0.15895656  1
  O  O178  1  0.14265003  0.78603759  0.49228989  1
  O  O179  1  0.14265003  0.78603759  0.82562323  1
  O  O180  1  0.86330290  0.24307399  0.29614443  1
  O  O181  1  0.86330290  0.24307399  0.62947777  1
  O  O182  1  0.86330290  0.24307399  0.96281110  1
  O  O183  1  0.86330290  0.57640732  0.29614443  1
  O  O184  1  0.86330290  0.57640732  0.62947777  1
  O  O185  1  0.86330290  0.57640732  0.96281110  1
  O  O186  1  0.86330290  0.90974065  0.29614443  1
  O  O187  1  0.86330290  0.90974065  0.62947777  1
  O  O188  1  0.86330290  0.90974065  0.96281110  1
  O  O189  1  0.63669710  0.09025935  0.12947777  1
  O  O190  1  0.63669710  0.09025935  0.46281110  1
  O  O191  1  0.63669710  0.09025935  0.79614443  1
  O  O192  1  0.63669710  0.42359268  0.12947777  1
  O  O193  1  0.63669710  0.42359268  0.46281110  1
  O  O194  1  0.63669710  0.42359268  0.79614443  1
  O  O195  1  0.63669710  0.75692601  0.12947777  1
  O  O196  1  0.63669710  0.75692601  0.46281110  1
  O  O197  1  0.63669710  0.75692601  0.79614443  1
  O  O198  1  0.36330290  0.09025935  0.12947777  1
  O  O199  1  0.36330290  0.09025935  0.46281110  1
  O  O200  1  0.36330290  0.09025935  0.79614443  1
  O  O201  1  0.36330290  0.42359268  0.12947777  1
  O  O202  1  0.36330290  0.42359268  0.46281110  1
  O  O203  1  0.36330290  0.42359268  0.79614443  1
  O  O204  1  0.36330290  0.75692601  0.12947777  1
  O  O205  1  0.36330290  0.75692601  0.46281110  1
  O  O206  1  0.36330290  0.75692601  0.79614443  1
  O  O207  1  0.13669710  0.24307399  0.29614443  1
  O  O208  1  0.13669710  0.24307399  0.62947777  1
  O  O209  1  0.13669710  0.24307399  0.96281110  1
  O  O210  1  0.13669710  0.57640732  0.29614443  1
  O  O211  1  0.13669710  0.57640732  0.62947777  1
  O  O212  1  0.13669710  0.57640732  0.96281110  1
  O  O213  1  0.13669710  0.90974065  0.29614443  1
  O  O214  1  0.13669710  0.90974065  0.62947777  1
  O  O215  1  0.13669710  0.90974065  0.96281110  1
