# generated using pymatgen
data_Li2Si2O5
_symmetry_space_group_name_H-M   'P 1'
_cell_length_a   17.51118242
_cell_length_b   14.69618347
_cell_length_c   14.38850467
_cell_angle_alpha   90.00000000
_cell_angle_beta   90.00000000
_cell_angle_gamma   90.00000000
_symmetry_Int_Tables_number   1
_chemical_formula_structural   Li2Si2O5
_chemical_formula_sum   'Li72 Si72 O180'
_cell_volume   3702.84642149
_cell_formula_units_Z   36
loop_
 _symmetry_equiv_pos_site_id
 _symmetry_equiv_pos_as_xyz
  1  'x, y, z'
loop_
 _atom_site_type_symbol
 _atom_site_label
 _atom_site_symmetry_multiplicity
 _atom_site_fract_x
 _atom_site_fract_y
 _atom_site_fract_z
 _atom_site_occupancy
  Li  Li0  1  0.28261462  0.05745041  0.13468134  1
  Li  Li1  1  0.28261462  0.05745041  0.46801467  1
  Li  Li2  1  0.28261462  0.05745041  0.80134801  1
  Li  Li3  1  0.61594795  0.05745041  0.13468134  1
  Li  Li4  1  0.61594795  0.05745041  0.46801467  1
  Li  Li5  1  0.61594795  0.05745041  0.80134801  1
  Li  Li6  1  0.94928128  0.05745041  0.13468134  1
  Li  Li7  1  0.94928128  0.05745041  0.46801467  1
  Li  Li8  1  0.94928128  0.05745041  0.80134801  1
  Li  Li9  1  0.44928128  0.55745041  0.13468134  1
  Li  Li10  1  0.44928128  0.55745041  0.46801467  1
  Li  Li11  1  0.44928128  0.55745041  0.80134801  1
  Li  Li12  1  0.78261462  0.55745041  0.13468134  1
  Li  Li13  1  0.78261462  0.55745041  0.46801467  1
  Li  Li14  1  0.78261462  0.55745041  0.80134801  1
  Li  Li15  1  1.11594795  0.55745041  0.13468134  1
  Li  Li16  1  1.11594795  0.55745041  0.46801467  1
  Li  Li17  1  1.11594795  0.55745041  0.80134801  1
  Li  Li18  1  0.28261462  -0.05745041  0.30134801  1
  Li  Li19  1  0.28261462  -0.05745041  0.63468134  1
  Li  Li20  1  0.28261462  -0.05745041  0.96801467  1
  Li  Li21  1  0.61594795  -0.05745041  0.30134801  1
  Li  Li22  1  0.61594795  -0.05745041  0.63468134  1
  Li  Li23  1  0.61594795  -0.05745041  0.96801467  1
  Li  Li24  1  0.94928128  -0.05745041  0.30134801  1
  Li  Li25  1  0.94928128  -0.05745041  0.63468134  1
  Li  Li26  1  0.94928128  -0.05745041  0.96801467  1
  Li  Li27  1  0.44928128  0.44254959  0.30134801  1
  Li  Li28  1  0.44928128  0.44254959  0.63468134  1
  Li  Li29  1  0.44928128  0.44254959  0.96801467  1
  Li  Li30  1  0.78261462  0.44254959  0.30134801  1
  Li  Li31  1  0.78261462  0.44254959  0.63468134  1
  Li  Li32  1  0.78261462  0.44254959  0.96801467  1
  Li  Li33  1  1.11594795  0.44254959  0.30134801  1
  Li  Li34  1  1.11594795  0.44254959  0.63468134  1
  Li  Li35  1  1.11594795  0.44254959  0.96801467  1
  Li  Li36  1  0.05071872  0.05745041  0.30134801  1
  Li  Li37  1  0.05071872  0.05745041  0.63468134  1
  Li  Li38  1  0.05071872  0.05745041  0.96801467  1
  Li  Li39  1  0.38405205  0.05745041  0.30134801  1
  Li  Li40  1  0.38405205  0.05745041  0.63468134  1
  Li  Li41  1  0.38405205  0.05745041  0.96801467  1
  Li  Li42  1  0.71738538  0.05745041  0.30134801  1
  Li  Li43  1  0.71738538  0.05745041  0.63468134  1
  Li  Li44  1  0.71738538  0.05745041  0.96801467  1
  Li  Li45  1  0.21738538  0.55745041  0.30134801  1
  Li  Li46  1  0.21738538  0.55745041  0.63468134  1
  Li  Li47  1  0.21738538  0.55745041  0.96801467  1
  Li  Li48  1  0.55071872  0.55745041  0.30134801  1
  Li  Li49  1  0.55071872  0.55745041  0.63468134  1
  Li  Li50  1  0.55071872  0.55745041  0.96801467  1
  Li  Li51  1  0.88405205  0.55745041  0.30134801  1
  Li  Li52  1  0.88405205  0.55745041  0.63468134  1
  Li  Li53  1  0.88405205  0.55745041  0.96801467  1
  Li  Li54  1  0.05071872  -0.05745041  0.13468134  1
  Li  Li55  1  0.05071872  -0.05745041  0.46801467  1
  Li  Li56  1  0.05071872  -0.05745041  0.80134801  1
  Li  Li57  1  0.38405205  -0.05745041  0.13468134  1
  Li  Li58  1  0.38405205  -0.05745041  0.46801467  1
  Li  Li59  1  0.38405205  -0.05745041  0.80134801  1
  Li  Li60  1  0.71738538  -0.05745041  0.13468134  1
  Li  Li61  1  0.71738538  -0.05745041  0.46801467  1
  Li  Li62  1  0.71738538  -0.05745041  0.80134801  1
  Li  Li63  1  0.21738538  0.44254959  0.13468134  1
  Li  Li64  1  0.21738538  0.44254959  0.46801467  1
  Li  Li65  1  0.21738538  0.44254959  0.80134801  1
  Li  Li66  1  0.55071872  0.44254959  0.13468134  1
  Li  Li67  1  0.55071872  0.44254959  0.46801467  1
  Li  Li68  1  0.55071872  0.44254959  0.80134801  1
  Li  Li69  1  0.88405205  0.44254959  0.13468134  1
  Li  Li70  1  0.88405205  0.44254959  0.46801467  1
  Li  Li71  1  0.88405205  0.44254959  0.80134801  1
  Si  Si72  1  0.21865857  0.14778320  0.30209864  1
  Si  Si73  1  0.21865857  0.14778320  0.63543197  1
  Si  Si74  1  0.21865857  0.14778320  0.96876530  1
  Si  Si75  1  0.55199190  0.14778320  0.30209864  1
  Si  Si76  1  0.55199190  0.14778320  0.63543197  1
  Si  Si77  1  0.55199190  0.14778320  0.96876530  1
  Si  Si78  1  0.88532524  0.14778320  0.30209864  1
  Si  Si79  1  0.88532524  0.14778320  0.63543197  1
  Si  Si80  1  0.88532524  0.14778320  0.96876530  1
  Si  Si81  1  0.38532524  0.64778320  0.30209864  1
  Si  Si82  1  0.38532524  0.64778320  0.63543197  1
  Si  Si83  1  0.38532524  0.64778320  0.96876530  1
  Si  Si84  1  0.71865857  0.64778320  0.30209864  1
  Si  Si85  1  0.71865857  0.64778320  0.63543197  1
  Si  Si86  1  0.71865857  0.64778320  0.96876530  1
  Si  Si87  1  1.05199190  0.64778320  0.30209864  1
  Si  Si88  1  1.05199190  0.64778320  0.63543197  1
  Si  Si89  1  1.05199190  0.64778320  0.96876530  1
  Si  Si90  1  0.11467476  -0.14778320  0.30209864  1
  Si  Si91  1  0.11467476  -0.14778320  0.63543197  1
  Si  Si92  1  0.11467476  -0.14778320  0.96876530  1
  Si  Si93  1  0.44800810  -0.14778320  0.30209864  1
  Si  Si94  1  0.44800810  -0.14778320  0.63543197  1
  Si  Si95  1  0.44800810  -0.14778320  0.96876530  1
  Si  Si96  1  0.78134143  -0.14778320  0.30209864  1
  Si  Si97  1  0.78134143  -0.14778320  0.63543197  1
  Si  Si98  1  0.78134143  -0.14778320  0.96876530  1
  Si  Si99  1  0.28134143  0.35221680  0.30209864  1
  Si  Si100  1  0.28134143  0.35221680  0.63543197  1
  Si  Si101  1  0.28134143  0.35221680  0.96876530  1
  Si  Si102  1  0.61467476  0.35221680  0.30209864  1
  Si  Si103  1  0.61467476  0.35221680  0.63543197  1
  Si  Si104  1  0.61467476  0.35221680  0.96876530  1
  Si  Si105  1  0.94800810  0.35221680  0.30209864  1
  Si  Si106  1  0.94800810  0.35221680  0.63543197  1
  Si  Si107  1  0.94800810  0.35221680  0.96876530  1
  Si  Si108  1  0.11467476  0.14778320  0.13543197  1
  Si  Si109  1  0.11467476  0.14778320  0.46876530  1
  Si  Si110  1  0.11467476  0.14778320  0.80209864  1
  Si  Si111  1  0.44800810  0.14778320  0.13543197  1
  Si  Si112  1  0.44800810  0.14778320  0.46876530  1
  Si  Si113  1  0.44800810  0.14778320  0.80209864  1
  Si  Si114  1  0.78134143  0.14778320  0.13543197  1
  Si  Si115  1  0.78134143  0.14778320  0.46876530  1
  Si  Si116  1  0.78134143  0.14778320  0.80209864  1
  Si  Si117  1  0.28134143  0.64778320  0.13543197  1
  Si  Si118  1  0.28134143  0.64778320  0.46876530  1
  Si  Si119  1  0.28134143  0.64778320  0.80209864  1
  Si  Si120  1  0.61467476  0.64778320  0.13543197  1
  Si  Si121  1  0.61467476  0.64778320  0.46876530  1
  Si  Si122  1  0.61467476  0.64778320  0.80209864  1
  Si  Si123  1  0.94800810  0.64778320  0.13543197  1
  Si  Si124  1  0.94800810  0.64778320  0.46876530  1
  Si  Si125  1  0.94800810  0.64778320  0.80209864  1
  Si  Si126  1  0.21865857  -0.14778320  0.13543197  1
  Si  Si127  1  0.21865857  -0.14778320  0.46876530  1
  Si  Si128  1  0.21865857  -0.14778320  0.80209864  1
  Si  Si129  1  0.55199190  -0.14778320  0.13543197  1
  Si  Si130  1  0.55199190  -0.14778320  0.46876530  1
  Si  Si131  1  0.55199190  -0.14778320  0.80209864  1
  Si  Si132  1  0.88532524  -0.14778320  0.13543197  1
  Si  Si133  1  0.88532524  -0.14778320  0.46876530  1
  Si  Si134  1  0.88532524  -0.14778320  0.80209864  1
  Si  Si135  1  0.38532524  0.35221680  0.13543197  1
  Si  Si136  1  0.38532524  0.35221680  0.46876530  1
  Si  Si137  1  0.38532524  0.35221680  0.80209864  1
  Si  Si138  1  0.71865857  0.35221680  0.13543197  1
  Si  Si139  1  0.71865857  0.35221680  0.46876530  1
  Si  Si140  1  0.71865857  0.35221680  0.80209864  1
  Si  Si141  1  1.05199190  0.35221680  0.13543197  1
  Si  Si142  1  1.05199190  0.35221680  0.46876530  1
  Si  Si143  1  1.05199190  0.35221680  0.80209864  1
  O  O144  1  0.05604098  0.07102201  0.16699940  1
  O  O145  1  0.05604098  0.07102201  0.50033274  1
  O  O146  1  0.05604098  0.07102201  0.83366607  1
  O  O147  1  0.38937431  0.07102201  0.16699940  1
  O  O148  1  0.38937431  0.07102201  0.50033274  1
  O  O149  1  0.38937431  0.07102201  0.83366607  1
  O  O150  1  0.72270764  0.07102201  0.16699940  1
  O  O151  1  0.72270764  0.07102201  0.50033274  1
  O  O152  1  0.72270764  0.07102201  0.83366607  1
  O  O153  1  0.22270764  0.57102201  0.16699940  1
  O  O154  1  0.22270764  0.57102201  0.50033274  1
  O  O155  1  0.22270764  0.57102201  0.83366607  1
  O  O156  1  0.55604098  0.57102201  0.16699940  1
  O  O157  1  0.55604098  0.57102201  0.50033274  1
  O  O158  1  0.55604098  0.57102201  0.83366607  1
  O  O159  1  0.88937431  0.57102201  0.16699940  1
  O  O160  1  0.88937431  0.57102201  0.50033274  1
  O  O161  1  0.88937431  0.57102201  0.83366607  1
  O  O162  1  0.05604098  -0.07102201  0.00033274  1
  O  O163  1  0.05604098  -0.07102201  0.33366607  1
  O  O164  1  0.05604098  -0.07102201  0.66699940  1
  O  O165  1  0.38937431  -0.07102201  0.00033274  1
  O  O166  1  0.38937431  -0.07102201  0.33366607  1
  O  O167  1  0.38937431  -0.07102201  0.66699940  1
  O  O168  1  0.72270764  -0.07102201  0.00033274  1
  O  O169  1  0.72270764  -0.07102201  0.33366607  1
  O  O170  1  0.72270764  -0.07102201  0.66699940  1
  O  O171  1  0.22270764  0.42897799  0.00033274  1
  O  O172  1  0.22270764  0.42897799  0.33366607  1
  O  O173  1  0.22270764  0.42897799  0.66699940  1
  O  O174  1  0.55604098  0.42897799  0.00033274  1
  O  O175  1  0.55604098  0.42897799  0.33366607  1
  O  O176  1  0.55604098  0.42897799  0.66699940  1
  O  O177  1  0.88937431  0.42897799  0.00033274  1
  O  O178  1  0.88937431  0.42897799  0.33366607  1
  O  O179  1  0.88937431  0.42897799  0.66699940  1
  O  O180  1  0.08333333  0.25000000  0.15485435  1
  O  O181  1  0.08333333  0.25000000  0.48818769  1
  O  O182  1  0.08333333  0.25000000  0.82152102  1
  O  O183  1  0.41666667  0.25000000  0.15485435  1
  O  O184  1  0.41666667  0.25000000  0.48818769  1
  O  O185  1  0.41666667  0.25000000  0.82152102  1
  O  O186  1  0.75000000  0.25000000  0.15485435  1
  O  O187  1  0.75000000  0.25000000  0.48818769  1
  O  O188  1  0.75000000  0.25000000  0.82152102  1
  O  O189  1  0.25000000  0.75000000  0.15485435  1
  O  O190  1  0.25000000  0.75000000  0.48818769  1
  O  O191  1  0.25000000  0.75000000  0.82152102  1
  O  O192  1  0.58333333  0.75000000  0.15485435  1
  O  O193  1  0.58333333  0.75000000  0.48818769  1
  O  O194  1  0.58333333  0.75000000  0.82152102  1
  O  O195  1  0.91666667  0.75000000  0.15485435  1
  O  O196  1  0.91666667  0.75000000  0.48818769  1
  O  O197  1  0.91666667  0.75000000  0.82152102  1
  O  O198  1  0.27729236  -0.07102201  0.16699940  1
  O  O199  1  0.27729236  -0.07102201  0.50033274  1
  O  O200  1  0.27729236  -0.07102201  0.83366607  1
  O  O201  1  0.61062569  -0.07102201  0.16699940  1
  O  O202  1  0.61062569  -0.07102201  0.50033274  1
  O  O203  1  0.61062569  -0.07102201  0.83366607  1
  O  O204  1  0.94395902  -0.07102201  0.16699940  1
  O  O205  1  0.94395902  -0.07102201  0.50033274  1
  O  O206  1  0.94395902  -0.07102201  0.83366607  1
  O  O207  1  0.44395902  0.42897799  0.16699940  1
  O  O208  1  0.44395902  0.42897799  0.50033274  1
  O  O209  1  0.44395902  0.42897799  0.83366607  1
  O  O210  1  0.77729236  0.42897799  0.16699940  1
  O  O211  1  0.77729236  0.42897799  0.50033274  1
  O  O212  1  0.77729236  0.42897799  0.83366607  1
  O  O213  1  1.11062569  0.42897799  0.16699940  1
  O  O214  1  1.11062569  0.42897799  0.50033274  1
  O  O215  1  1.11062569  0.42897799  0.83366607  1
  O  O216  1  0.08333333  -0.25000000  0.32152102  1
  O  O217  1  0.08333333  -0.25000000  0.65485435  1
  O  O218  1  0.08333333  -0.25000000  0.98818769  1
  O  O219  1  0.41666667  -0.25000000  0.32152102  1
  O  O220  1  0.41666667  -0.25000000  0.65485435  1
  O  O221  1  0.41666667  -0.25000000  0.98818769  1
  O  O222  1  0.75000000  -0.25000000  0.32152102  1
  O  O223  1  0.75000000  -0.25000000  0.65485435  1
  O  O224  1  0.75000000  -0.25000000  0.98818769  1
  O  O225  1  0.25000000  0.25000000  0.32152102  1
  O  O226  1  0.25000000  0.25000000  0.65485435  1
  O  O227  1  0.25000000  0.25000000  0.98818769  1
  O  O228  1  0.58333333  0.25000000  0.32152102  1
  O  O229  1  0.58333333  0.25000000  0.65485435  1
  O  O230  1  0.58333333  0.25000000  0.98818769  1
  O  O231  1  0.91666667  0.25000000  0.32152102  1
  O  O232  1  0.91666667  0.25000000  0.65485435  1
  O  O233  1  0.91666667  0.25000000  0.98818769  1
  O  O234  1  0.19814004  -0.13719626  0.02327861  1
  O  O235  1  0.19814004  -0.13719626  0.35661194  1
  O  O236  1  0.19814004  -0.13719626  0.68994527  1
  O  O237  1  0.53147338  -0.13719626  0.02327861  1
  O  O238  1  0.53147338  -0.13719626  0.35661194  1
  O  O239  1  0.53147338  -0.13719626  0.68994527  1
  O  O240  1  0.86480671  -0.13719626  0.02327861  1
  O  O241  1  0.86480671  -0.13719626  0.35661194  1
  O  O242  1  0.86480671  -0.13719626  0.68994527  1
  O  O243  1  0.36480671  0.36280374  0.02327861  1
  O  O244  1  0.36480671  0.36280374  0.35661194  1
  O  O245  1  0.36480671  0.36280374  0.68994527  1
  O  O246  1  0.69814004  0.36280374  0.02327861  1
  O  O247  1  0.69814004  0.36280374  0.35661194  1
  O  O248  1  0.69814004  0.36280374  0.68994527  1
  O  O249  1  1.03147338  0.36280374  0.02327861  1
  O  O250  1  1.03147338  0.36280374  0.35661194  1
  O  O251  1  1.03147338  0.36280374  0.68994527  1
  O  O252  1  0.19814004  0.13719626  0.18994527  1
  O  O253  1  0.19814004  0.13719626  0.52327861  1
  O  O254  1  0.19814004  0.13719626  0.85661194  1
  O  O255  1  0.53147338  0.13719626  0.18994527  1
  O  O256  1  0.53147338  0.13719626  0.52327861  1
  O  O257  1  0.53147338  0.13719626  0.85661194  1
  O  O258  1  0.86480671  0.13719626  0.18994527  1
  O  O259  1  0.86480671  0.13719626  0.52327861  1
  O  O260  1  0.86480671  0.13719626  0.85661194  1
  O  O261  1  0.36480671  0.63719626  0.18994527  1
  O  O262  1  0.36480671  0.63719626  0.52327861  1
  O  O263  1  0.36480671  0.63719626  0.85661194  1
  O  O264  1  0.69814004  0.63719626  0.18994527  1
  O  O265  1  0.69814004  0.63719626  0.52327861  1
  O  O266  1  0.69814004  0.63719626  0.85661194  1
  O  O267  1  1.03147338  0.63719626  0.18994527  1
  O  O268  1  1.03147338  0.63719626  0.52327861  1
  O  O269  1  1.03147338  0.63719626  0.85661194  1
  O  O270  1  0.13519329  -0.13719626  0.18994527  1
  O  O271  1  0.13519329  -0.13719626  0.52327861  1
  O  O272  1  0.13519329  -0.13719626  0.85661194  1
  O  O273  1  0.46852662  -0.13719626  0.18994527  1
  O  O274  1  0.46852662  -0.13719626  0.52327861  1
  O  O275  1  0.46852662  -0.13719626  0.85661194  1
  O  O276  1  0.80185996  -0.13719626  0.18994527  1
  O  O277  1  0.80185996  -0.13719626  0.52327861  1
  O  O278  1  0.80185996  -0.13719626  0.85661194  1
  O  O279  1  0.30185996  0.36280374  0.18994527  1
  O  O280  1  0.30185996  0.36280374  0.52327861  1
  O  O281  1  0.30185996  0.36280374  0.85661194  1
  O  O282  1  0.63519329  0.36280374  0.18994527  1
  O  O283  1  0.63519329  0.36280374  0.52327861  1
  O  O284  1  0.63519329  0.36280374  0.85661194  1
  O  O285  1  0.96852662  0.36280374  0.18994527  1
  O  O286  1  0.96852662  0.36280374  0.52327861  1
  O  O287  1  0.96852662  0.36280374  0.85661194  1
  O  O288  1  0.13519329  0.13719626  0.02327861  1
  O  O289  1  0.13519329  0.13719626  0.35661194  1
  O  O290  1  0.13519329  0.13719626  0.68994527  1
  O  O291  1  0.46852662  0.13719626  0.02327861  1
  O  O292  1  0.46852662  0.13719626  0.35661194  1
  O  O293  1  0.46852662  0.13719626  0.68994527  1
  O  O294  1  0.80185996  0.13719626  0.02327861  1
  O  O295  1  0.80185996  0.13719626  0.35661194  1
  O  O296  1  0.80185996  0.13719626  0.68994527  1
  O  O297  1  0.30185996  0.63719626  0.02327861  1
  O  O298  1  0.30185996  0.63719626  0.35661194  1
  O  O299  1  0.30185996  0.63719626  0.68994527  1
  O  O300  1  0.63519329  0.63719626  0.02327861  1
  O  O301  1  0.63519329  0.63719626  0.35661194  1
  O  O302  1  0.63519329  0.63719626  0.68994527  1
  O  O303  1  0.96852662  0.63719626  0.02327861  1
  O  O304  1  0.96852662  0.63719626  0.35661194  1
  O  O305  1  0.96852662  0.63719626  0.68994527  1
  O  O306  1  0.27729236  0.07102201  0.00033274  1
  O  O307  1  0.27729236  0.07102201  0.33366607  1
  O  O308  1  0.27729236  0.07102201  0.66699940  1
  O  O309  1  0.61062569  0.07102201  0.00033274  1
  O  O310  1  0.61062569  0.07102201  0.33366607  1
  O  O311  1  0.61062569  0.07102201  0.66699940  1
  O  O312  1  0.94395902  0.07102201  0.00033274  1
  O  O313  1  0.94395902  0.07102201  0.33366607  1
  O  O314  1  0.94395902  0.07102201  0.66699940  1
  O  O315  1  0.44395902  0.57102201  0.00033274  1
  O  O316  1  0.44395902  0.57102201  0.33366607  1
  O  O317  1  0.44395902  0.57102201  0.66699940  1
  O  O318  1  0.77729236  0.57102201  0.00033274  1
  O  O319  1  0.77729236  0.57102201  0.33366607  1
  O  O320  1  0.77729236  0.57102201  0.66699940  1
  O  O321  1  1.11062569  0.57102201  0.00033274  1
  O  O322  1  1.11062569  0.57102201  0.33366607  1
  O  O323  1  1.11062569  0.57102201  0.66699940  1
