# generated using pymatgen
data_K3GaO3
_symmetry_space_group_name_H-M   'P 1'
_cell_length_a   14.28167470
_cell_length_b   11.13146734
_cell_length_c   13.00996953
_cell_angle_alpha   90.00000000
_cell_angle_beta   102.03922468
_cell_angle_gamma   90.00000000
_symmetry_Int_Tables_number   1
_chemical_formula_structural   K3GaO3
_chemical_formula_sum   'K48 Ga16 O48'
_cell_volume   2022.78126901
_cell_formula_units_Z   16
loop_
 _symmetry_equiv_pos_site_id
 _symmetry_equiv_pos_as_xyz
  1  'x, y, z'
loop_
 _atom_site_type_symbol
 _atom_site_label
 _atom_site_symmetry_multiplicity
 _atom_site_fract_x
 _atom_site_fract_y
 _atom_site_fract_z
 _atom_site_occupancy
  K  K0  1  0.18688003  -0.00000000  0.32446110  1
  K  K1  1  0.18688003  -0.00000000  0.82446110  1
  K  K2  1  0.68688003  -0.00000000  0.32446110  1
  K  K3  1  0.68688003  -0.00000000  0.82446110  1
  K  K4  1  0.43688003  0.50000000  0.32446110  1
  K  K5  1  0.43688003  0.50000000  0.82446110  1
  K  K6  1  0.93688003  0.50000000  0.32446110  1
  K  K7  1  0.93688003  0.50000000  0.82446110  1
  K  K8  1  0.25000000  0.24168336  0.00000000  1
  K  K9  1  0.25000000  0.24168336  0.50000000  1
  K  K10  1  0.75000000  0.24168336  0.00000000  1
  K  K11  1  0.75000000  0.24168336  0.50000000  1
  K  K12  1  0.50000000  0.74168336  0.00000000  1
  K  K13  1  0.50000000  0.74168336  0.50000000  1
  K  K14  1  1.00000000  0.74168336  0.00000000  1
  K  K15  1  1.00000000  0.74168336  0.50000000  1
  K  K16  1  0.25000000  0.30755440  0.25000000  1
  K  K17  1  0.25000000  0.30755440  0.75000000  1
  K  K18  1  0.75000000  0.30755440  0.25000000  1
  K  K19  1  0.75000000  0.30755440  0.75000000  1
  K  K20  1  0.50000000  0.80755440  0.25000000  1
  K  K21  1  0.50000000  0.80755440  0.75000000  1
  K  K22  1  1.00000000  0.80755440  0.25000000  1
  K  K23  1  1.00000000  0.80755440  0.75000000  1
  K  K24  1  0.25000000  -0.24168336  0.00000000  1
  K  K25  1  0.25000000  -0.24168336  0.50000000  1
  K  K26  1  0.75000000  -0.24168336  0.00000000  1
  K  K27  1  0.75000000  -0.24168336  0.50000000  1
  K  K28  1  0.50000000  0.25831664  0.00000000  1
  K  K29  1  0.50000000  0.25831664  0.50000000  1
  K  K30  1  1.00000000  0.25831664  0.00000000  1
  K  K31  1  1.00000000  0.25831664  0.50000000  1
  K  K32  1  0.31311997  0.00000000  0.17553890  1
  K  K33  1  0.31311997  0.00000000  0.67553890  1
  K  K34  1  0.81311997  0.00000000  0.17553890  1
  K  K35  1  0.81311997  0.00000000  0.67553890  1
  K  K36  1  0.56311997  0.50000000  0.17553890  1
  K  K37  1  0.56311997  0.50000000  0.67553890  1
  K  K38  1  1.06311997  0.50000000  0.17553890  1
  K  K39  1  1.06311997  0.50000000  0.67553890  1
  K  K40  1  0.25000000  -0.30755440  0.25000000  1
  K  K41  1  0.25000000  -0.30755440  0.75000000  1
  K  K42  1  0.75000000  -0.30755440  0.25000000  1
  K  K43  1  0.75000000  -0.30755440  0.75000000  1
  K  K44  1  0.50000000  0.19244560  0.25000000  1
  K  K45  1  0.50000000  0.19244560  0.75000000  1
  K  K46  1  1.00000000  0.19244560  0.25000000  1
  K  K47  1  1.00000000  0.19244560  0.75000000  1
  Ga  Ga48  1  0.08524867  -0.00000000  0.07380270  1
  Ga  Ga49  1  0.08524867  -0.00000000  0.57380270  1
  Ga  Ga50  1  0.58524867  -0.00000000  0.07380270  1
  Ga  Ga51  1  0.58524867  -0.00000000  0.57380270  1
  Ga  Ga52  1  0.33524867  0.50000000  0.07380270  1
  Ga  Ga53  1  0.33524867  0.50000000  0.57380270  1
  Ga  Ga54  1  0.83524867  0.50000000  0.07380270  1
  Ga  Ga55  1  0.83524867  0.50000000  0.57380270  1
  Ga  Ga56  1  0.41475133  0.00000000  0.42619730  1
  Ga  Ga57  1  0.41475133  0.00000000  0.92619730  1
  Ga  Ga58  1  0.91475133  0.00000000  0.42619730  1
  Ga  Ga59  1  0.91475133  0.00000000  0.92619730  1
  Ga  Ga60  1  0.66475133  0.50000000  0.42619730  1
  Ga  Ga61  1  0.66475133  0.50000000  0.92619730  1
  Ga  Ga62  1  1.16475133  0.50000000  0.42619730  1
  Ga  Ga63  1  1.16475133  0.50000000  0.92619730  1
  O  O64  1  0.14610990  0.13640353  0.13313426  1
  O  O65  1  0.14610990  0.13640353  0.63313426  1
  O  O66  1  0.64610990  0.13640353  0.13313426  1
  O  O67  1  0.64610990  0.13640353  0.63313426  1
  O  O68  1  0.39610990  0.63640353  0.13313426  1
  O  O69  1  0.39610990  0.63640353  0.63313426  1
  O  O70  1  0.89610990  0.63640353  0.13313426  1
  O  O71  1  0.89610990  0.63640353  0.63313426  1
  O  O72  1  0.04913164  -0.00000000  0.42202466  1
  O  O73  1  0.04913164  -0.00000000  0.92202466  1
  O  O74  1  0.54913164  -0.00000000  0.42202466  1
  O  O75  1  0.54913164  -0.00000000  0.92202466  1
  O  O76  1  0.29913164  0.50000000  0.42202466  1
  O  O77  1  0.29913164  0.50000000  0.92202466  1
  O  O78  1  0.79913164  0.50000000  0.42202466  1
  O  O79  1  0.79913164  0.50000000  0.92202466  1
  O  O80  1  0.45086836  0.00000000  0.07797534  1
  O  O81  1  0.45086836  0.00000000  0.57797534  1
  O  O82  1  0.95086836  0.00000000  0.07797534  1
  O  O83  1  0.95086836  0.00000000  0.57797534  1
  O  O84  1  0.70086836  0.50000000  0.07797534  1
  O  O85  1  0.70086836  0.50000000  0.57797534  1
  O  O86  1  1.20086836  0.50000000  0.07797534  1
  O  O87  1  1.20086836  0.50000000  0.57797534  1
  O  O88  1  0.35389010  -0.13640353  0.36686574  1
  O  O89  1  0.35389010  -0.13640353  0.86686574  1
  O  O90  1  0.85389010  -0.13640353  0.36686574  1
  O  O91  1  0.85389010  -0.13640353  0.86686574  1
  O  O92  1  0.60389010  0.36359647  0.36686574  1
  O  O93  1  0.60389010  0.36359647  0.86686574  1
  O  O94  1  1.10389010  0.36359647  0.36686574  1
  O  O95  1  1.10389010  0.36359647  0.86686574  1
  O  O96  1  0.35389010  0.13640353  0.36686574  1
  O  O97  1  0.35389010  0.13640353  0.86686574  1
  O  O98  1  0.85389010  0.13640353  0.36686574  1
  O  O99  1  0.85389010  0.13640353  0.86686574  1
  O  O100  1  0.60389010  0.63640353  0.36686574  1
  O  O101  1  0.60389010  0.63640353  0.86686574  1
  O  O102  1  1.10389010  0.63640353  0.36686574  1
  O  O103  1  1.10389010  0.63640353  0.86686574  1
  O  O104  1  0.14610990  -0.13640353  0.13313426  1
  O  O105  1  0.14610990  -0.13640353  0.63313426  1
  O  O106  1  0.64610990  -0.13640353  0.13313426  1
  O  O107  1  0.64610990  -0.13640353  0.63313426  1
  O  O108  1  0.39610990  0.36359647  0.13313426  1
  O  O109  1  0.39610990  0.36359647  0.63313426  1
  O  O110  1  0.89610990  0.36359647  0.13313426  1
  O  O111  1  0.89610990  0.36359647  0.63313426  1
