# generated using pymatgen
data_Na2PbO3
_symmetry_space_group_name_H-M   'P 1'
_cell_length_a   11.43968627
_cell_length_b   9.91546725
_cell_length_c   11.09691896
_cell_angle_alpha   90.00000000
_cell_angle_beta   99.99843443
_cell_angle_gamma   90.00000000
_symmetry_Int_Tables_number   1
_chemical_formula_structural   Na2PbO3
_chemical_formula_sum   'Na32 Pb16 O48'
_cell_volume   1239.60484260
_cell_formula_units_Z   16
loop_
 _symmetry_equiv_pos_site_id
 _symmetry_equiv_pos_as_xyz
  1  'x, y, z'
loop_
 _atom_site_type_symbol
 _atom_site_label
 _atom_site_symmetry_multiplicity
 _atom_site_fract_x
 _atom_site_fract_y
 _atom_site_fract_z
 _atom_site_occupancy
  Na  Na0  1  0.13006242  -0.07980821  0.50010112  1
  Na  Na1  1  0.63006242  -0.07980821  0.50010112  1
  Na  Na2  1  0.38006242  0.42019179  0.50010112  1
  Na  Na3  1  0.88006242  0.42019179  0.50010112  1
  Na  Na4  1  0.36993758  0.07980821  0.49989888  1
  Na  Na5  1  0.86993758  0.07980821  0.49989888  1
  Na  Na6  1  0.61993758  0.57980821  0.49989888  1
  Na  Na7  1  1.11993758  0.57980821  0.49989888  1
  Na  Na8  1  0.36993758  -0.07980821  0.99989888  1
  Na  Na9  1  0.86993758  -0.07980821  0.99989888  1
  Na  Na10  1  0.61993758  0.42019179  0.99989888  1
  Na  Na11  1  1.11993758  0.42019179  0.99989888  1
  Na  Na12  1  0.13006242  0.07980821  0.00010112  1
  Na  Na13  1  0.63006242  0.07980821  0.00010112  1
  Na  Na14  1  0.38006242  0.57980821  0.00010112  1
  Na  Na15  1  0.88006242  0.57980821  0.00010112  1
  Na  Na16  1  0.25000000  0.08445847  0.75000000  1
  Na  Na17  1  0.75000000  0.08445847  0.75000000  1
  Na  Na18  1  0.50000000  0.58445847  0.75000000  1
  Na  Na19  1  1.00000000  0.58445847  0.75000000  1
  Na  Na20  1  0.25000000  -0.08445847  0.25000000  1
  Na  Na21  1  0.75000000  -0.08445847  0.25000000  1
  Na  Na22  1  0.50000000  0.41554153  0.25000000  1
  Na  Na23  1  1.00000000  0.41554153  0.25000000  1
  Na  Na24  1  0.12500000  -0.25000000  0.00000000  1
  Na  Na25  1  0.62500000  -0.25000000  0.00000000  1
  Na  Na26  1  0.37500000  0.25000000  0.00000000  1
  Na  Na27  1  0.87500000  0.25000000  0.00000000  1
  Na  Na28  1  0.12500000  0.25000000  0.50000000  1
  Na  Na29  1  0.62500000  0.25000000  0.50000000  1
  Na  Na30  1  0.37500000  0.75000000  0.50000000  1
  Na  Na31  1  0.87500000  0.75000000  0.50000000  1
  Pb  Pb32  1  0.25000000  -0.24941622  0.75000000  1
  Pb  Pb33  1  0.75000000  -0.24941622  0.75000000  1
  Pb  Pb34  1  0.50000000  0.25058378  0.75000000  1
  Pb  Pb35  1  1.00000000  0.25058378  0.75000000  1
  Pb  Pb36  1  0.25000000  0.24941622  0.25000000  1
  Pb  Pb37  1  0.75000000  0.24941622  0.25000000  1
  Pb  Pb38  1  0.50000000  0.74941622  0.25000000  1
  Pb  Pb39  1  1.00000000  0.74941622  0.25000000  1
  Pb  Pb40  1  0.25000000  0.41777414  0.75000000  1
  Pb  Pb41  1  0.75000000  0.41777414  0.75000000  1
  Pb  Pb42  1  0.50000000  0.91777414  0.75000000  1
  Pb  Pb43  1  1.00000000  0.91777414  0.75000000  1
  Pb  Pb44  1  0.25000000  -0.41777414  0.25000000  1
  Pb  Pb45  1  0.75000000  -0.41777414  0.25000000  1
  Pb  Pb46  1  0.50000000  0.08222586  0.25000000  1
  Pb  Pb47  1  1.00000000  0.08222586  0.25000000  1
  O  O48  1  0.05215509  -0.08399534  0.13678745  1
  O  O49  1  0.55215509  -0.08399534  0.13678745  1
  O  O50  1  0.30215509  0.41600466  0.13678745  1
  O  O51  1  0.80215509  0.41600466  0.13678745  1
  O  O52  1  0.44784491  0.08399534  0.86321255  1
  O  O53  1  0.94784491  0.08399534  0.86321255  1
  O  O54  1  0.69784491  0.58399534  0.86321255  1
  O  O55  1  1.19784491  0.58399534  0.86321255  1
  O  O56  1  0.44784491  -0.08399534  0.36321255  1
  O  O57  1  0.94784491  -0.08399534  0.36321255  1
  O  O58  1  0.69784491  0.41600466  0.36321255  1
  O  O59  1  1.19784491  0.41600466  0.36321255  1
  O  O60  1  0.05215509  0.08399534  0.63678745  1
  O  O61  1  0.55215509  0.08399534  0.63678745  1
  O  O62  1  0.30215509  0.58399534  0.63678745  1
  O  O63  1  0.80215509  0.58399534  0.63678745  1
  O  O64  1  0.18023067  -0.09442380  0.86425698  1
  O  O65  1  0.68023067  -0.09442380  0.86425698  1
  O  O66  1  0.43023067  0.40557620  0.86425698  1
  O  O67  1  0.93023067  0.40557620  0.86425698  1
  O  O68  1  0.31976933  0.09442380  0.13574302  1
  O  O69  1  0.81976933  0.09442380  0.13574302  1
  O  O70  1  0.56976933  0.59442380  0.13574302  1
  O  O71  1  1.06976933  0.59442380  0.13574302  1
  O  O72  1  0.31976933  -0.09442380  0.63574302  1
  O  O73  1  0.81976933  -0.09442380  0.63574302  1
  O  O74  1  0.56976933  0.40557620  0.63574302  1
  O  O75  1  1.06976933  0.40557620  0.63574302  1
  O  O76  1  0.18023067  0.09442380  0.36425698  1
  O  O77  1  0.68023067  0.09442380  0.36425698  1
  O  O78  1  0.43023067  0.59442380  0.36425698  1
  O  O79  1  0.93023067  0.59442380  0.36425698  1
  O  O80  1  0.32052009  0.26341685  0.63714821  1
  O  O81  1  0.82052009  0.26341685  0.63714821  1
  O  O82  1  0.57052009  0.76341685  0.63714821  1
  O  O83  1  1.07052009  0.76341685  0.63714821  1
  O  O84  1  0.17947991  -0.26341685  0.36285179  1
  O  O85  1  0.67947991  -0.26341685  0.36285179  1
  O  O86  1  0.42947991  0.23658315  0.36285179  1
  O  O87  1  0.92947991  0.23658315  0.36285179  1
  O  O88  1  0.17947991  0.26341685  0.86285179  1
  O  O89  1  0.67947991  0.26341685  0.86285179  1
  O  O90  1  0.42947991  0.76341685  0.86285179  1
  O  O91  1  0.92947991  0.76341685  0.86285179  1
  O  O92  1  0.32052009  -0.26341685  0.13714821  1
  O  O93  1  0.82052009  -0.26341685  0.13714821  1
  O  O94  1  0.57052009  0.23658315  0.13714821  1
  O  O95  1  1.07052009  0.23658315  0.13714821  1
