# generated using pymatgen
data_Na2MgSiO4
_symmetry_space_group_name_H-M   'P 1'
_cell_length_a   15.73553146
_cell_length_b   16.52023029
_cell_length_c   17.35639323
_cell_angle_alpha   90.00000000
_cell_angle_beta   127.00559668
_cell_angle_gamma   90.00000000
_symmetry_Int_Tables_number   1
_chemical_formula_structural   Na2MgSiO4
_chemical_formula_sum   'Na72 Mg36 Si36 O144'
_cell_volume   3603.07779861
_cell_formula_units_Z   36
loop_
 _symmetry_equiv_pos_site_id
 _symmetry_equiv_pos_as_xyz
  1  'x, y, z'
loop_
 _atom_site_type_symbol
 _atom_site_label
 _atom_site_symmetry_multiplicity
 _atom_site_fract_x
 _atom_site_fract_y
 _atom_site_fract_z
 _atom_site_occupancy
  Na  Na0  1  0.24589218  0.11110658  0.12484394  1
  Na  Na1  1  0.24589218  0.11110658  0.62484394  1
  Na  Na2  1  0.24589218  0.44443992  0.12484394  1
  Na  Na3  1  0.24589218  0.44443992  0.62484394  1
  Na  Na4  1  0.24589218  0.77777325  0.12484394  1
  Na  Na5  1  0.24589218  0.77777325  0.62484394  1
  Na  Na6  1  0.57922552  0.11110658  0.12484394  1
  Na  Na7  1  0.57922552  0.11110658  0.62484394  1
  Na  Na8  1  0.57922552  0.44443992  0.12484394  1
  Na  Na9  1  0.57922552  0.44443992  0.62484394  1
  Na  Na10  1  0.57922552  0.77777325  0.12484394  1
  Na  Na11  1  0.57922552  0.77777325  0.62484394  1
  Na  Na12  1  0.91255885  0.11110658  0.12484394  1
  Na  Na13  1  0.91255885  0.11110658  0.62484394  1
  Na  Na14  1  0.91255885  0.44443992  0.12484394  1
  Na  Na15  1  0.91255885  0.44443992  0.62484394  1
  Na  Na16  1  0.91255885  0.77777325  0.12484394  1
  Na  Na17  1  0.91255885  0.77777325  0.62484394  1
  Na  Na18  1  0.16183235  0.06068044  0.24710678  1
  Na  Na19  1  0.16183235  0.06068044  0.74710678  1
  Na  Na20  1  0.16183235  0.39401377  0.24710678  1
  Na  Na21  1  0.16183235  0.39401377  0.74710678  1
  Na  Na22  1  0.16183235  0.72734710  0.24710678  1
  Na  Na23  1  0.16183235  0.72734710  0.74710678  1
  Na  Na24  1  0.49516569  0.06068044  0.24710678  1
  Na  Na25  1  0.49516569  0.06068044  0.74710678  1
  Na  Na26  1  0.49516569  0.39401377  0.24710678  1
  Na  Na27  1  0.49516569  0.39401377  0.74710678  1
  Na  Na28  1  0.49516569  0.72734710  0.24710678  1
  Na  Na29  1  0.49516569  0.72734710  0.74710678  1
  Na  Na30  1  0.82849902  0.06068044  0.24710678  1
  Na  Na31  1  0.82849902  0.06068044  0.74710678  1
  Na  Na32  1  0.82849902  0.39401377  0.24710678  1
  Na  Na33  1  0.82849902  0.39401377  0.74710678  1
  Na  Na34  1  0.82849902  0.72734710  0.24710678  1
  Na  Na35  1  0.82849902  0.72734710  0.74710678  1
  Na  Na36  1  0.24589218  0.22222675  0.37484394  1
  Na  Na37  1  0.24589218  0.22222675  0.87484394  1
  Na  Na38  1  0.24589218  0.55556008  0.37484394  1
  Na  Na39  1  0.24589218  0.55556008  0.87484394  1
  Na  Na40  1  0.24589218  0.88889342  0.37484394  1
  Na  Na41  1  0.24589218  0.88889342  0.87484394  1
  Na  Na42  1  0.57922552  0.22222675  0.37484394  1
  Na  Na43  1  0.57922552  0.22222675  0.87484394  1
  Na  Na44  1  0.57922552  0.55556008  0.37484394  1
  Na  Na45  1  0.57922552  0.55556008  0.87484394  1
  Na  Na46  1  0.57922552  0.88889342  0.37484394  1
  Na  Na47  1  0.57922552  0.88889342  0.87484394  1
  Na  Na48  1  0.91255885  0.22222675  0.37484394  1
  Na  Na49  1  0.91255885  0.22222675  0.87484394  1
  Na  Na50  1  0.91255885  0.55556008  0.37484394  1
  Na  Na51  1  0.91255885  0.55556008  0.87484394  1
  Na  Na52  1  0.91255885  0.88889342  0.37484394  1
  Na  Na53  1  0.91255885  0.88889342  0.87484394  1
  Na  Na54  1  0.16183235  0.27265290  0.49710678  1
  Na  Na55  1  0.16183235  0.27265290  0.99710678  1
  Na  Na56  1  0.16183235  0.60598623  0.49710678  1
  Na  Na57  1  0.16183235  0.60598623  0.99710678  1
  Na  Na58  1  0.16183235  0.93931956  0.49710678  1
  Na  Na59  1  0.16183235  0.93931956  0.99710678  1
  Na  Na60  1  0.49516569  0.27265290  0.49710678  1
  Na  Na61  1  0.49516569  0.27265290  0.99710678  1
  Na  Na62  1  0.49516569  0.60598623  0.49710678  1
  Na  Na63  1  0.49516569  0.60598623  0.99710678  1
  Na  Na64  1  0.49516569  0.93931956  0.49710678  1
  Na  Na65  1  0.49516569  0.93931956  0.99710678  1
  Na  Na66  1  0.82849902  0.27265290  0.49710678  1
  Na  Na67  1  0.82849902  0.27265290  0.99710678  1
  Na  Na68  1  0.82849902  0.60598623  0.49710678  1
  Na  Na69  1  0.82849902  0.60598623  0.99710678  1
  Na  Na70  1  0.82849902  0.93931956  0.49710678  1
  Na  Na71  1  0.82849902  0.93931956  0.99710678  1
  Mg  Mg72  1  0.00034660  0.06137608  0.00024962  1
  Mg  Mg73  1  0.00034660  0.06137608  0.50024962  1
  Mg  Mg74  1  0.00034660  0.39470942  0.00024962  1
  Mg  Mg75  1  0.00034660  0.39470942  0.50024962  1
  Mg  Mg76  1  0.00034660  0.72804275  0.00024962  1
  Mg  Mg77  1  0.00034660  0.72804275  0.50024962  1
  Mg  Mg78  1  0.33367994  0.06137608  0.00024962  1
  Mg  Mg79  1  0.33367994  0.06137608  0.50024962  1
  Mg  Mg80  1  0.33367994  0.39470942  0.00024962  1
  Mg  Mg81  1  0.33367994  0.39470942  0.50024962  1
  Mg  Mg82  1  0.33367994  0.72804275  0.00024962  1
  Mg  Mg83  1  0.33367994  0.72804275  0.50024962  1
  Mg  Mg84  1  0.66701327  0.06137608  0.00024962  1
  Mg  Mg85  1  0.66701327  0.06137608  0.50024962  1
  Mg  Mg86  1  0.66701327  0.39470942  0.00024962  1
  Mg  Mg87  1  0.66701327  0.39470942  0.50024962  1
  Mg  Mg88  1  0.66701327  0.72804275  0.00024962  1
  Mg  Mg89  1  0.66701327  0.72804275  0.50024962  1
  Mg  Mg90  1  0.00034660  0.27195725  0.25024962  1
  Mg  Mg91  1  0.00034660  0.27195725  0.75024962  1
  Mg  Mg92  1  0.00034660  0.60529058  0.25024962  1
  Mg  Mg93  1  0.00034660  0.60529058  0.75024962  1
  Mg  Mg94  1  0.00034660  0.93862392  0.25024962  1
  Mg  Mg95  1  0.00034660  0.93862392  0.75024962  1
  Mg  Mg96  1  0.33367994  0.27195725  0.25024962  1
  Mg  Mg97  1  0.33367994  0.27195725  0.75024962  1
  Mg  Mg98  1  0.33367994  0.60529058  0.25024962  1
  Mg  Mg99  1  0.33367994  0.60529058  0.75024962  1
  Mg  Mg100  1  0.33367994  0.93862392  0.25024962  1
  Mg  Mg101  1  0.33367994  0.93862392  0.75024962  1
  Mg  Mg102  1  0.66701327  0.27195725  0.25024962  1
  Mg  Mg103  1  0.66701327  0.27195725  0.75024962  1
  Mg  Mg104  1  0.66701327  0.60529058  0.25024962  1
  Mg  Mg105  1  0.66701327  0.60529058  0.75024962  1
  Mg  Mg106  1  0.66701327  0.93862392  0.25024962  1
  Mg  Mg107  1  0.66701327  0.93862392  0.75024962  1
  Si  Si108  1  0.08422669  0.10478833  0.37381334  1
  Si  Si109  1  0.08422669  0.10478833  0.87381334  1
  Si  Si110  1  0.08422669  0.43812166  0.37381334  1
  Si  Si111  1  0.08422669  0.43812166  0.87381334  1
  Si  Si112  1  0.08422669  0.77145499  0.37381334  1
  Si  Si113  1  0.08422669  0.77145499  0.87381334  1
  Si  Si114  1  0.41756003  0.10478833  0.37381334  1
  Si  Si115  1  0.41756003  0.10478833  0.87381334  1
  Si  Si116  1  0.41756003  0.43812166  0.37381334  1
  Si  Si117  1  0.41756003  0.43812166  0.87381334  1
  Si  Si118  1  0.41756003  0.77145499  0.37381334  1
  Si  Si119  1  0.41756003  0.77145499  0.87381334  1
  Si  Si120  1  0.75089336  0.10478833  0.37381334  1
  Si  Si121  1  0.75089336  0.10478833  0.87381334  1
  Si  Si122  1  0.75089336  0.43812166  0.37381334  1
  Si  Si123  1  0.75089336  0.43812166  0.87381334  1
  Si  Si124  1  0.75089336  0.77145499  0.37381334  1
  Si  Si125  1  0.75089336  0.77145499  0.87381334  1
  Si  Si126  1  0.08422669  0.22854501  0.12381334  1
  Si  Si127  1  0.08422669  0.22854501  0.62381334  1
  Si  Si128  1  0.08422669  0.56187834  0.12381334  1
  Si  Si129  1  0.08422669  0.56187834  0.62381334  1
  Si  Si130  1  0.08422669  0.89521167  0.12381334  1
  Si  Si131  1  0.08422669  0.89521167  0.62381334  1
  Si  Si132  1  0.41756003  0.22854501  0.12381334  1
  Si  Si133  1  0.41756003  0.22854501  0.62381334  1
  Si  Si134  1  0.41756003  0.56187834  0.12381334  1
  Si  Si135  1  0.41756003  0.56187834  0.62381334  1
  Si  Si136  1  0.41756003  0.89521167  0.12381334  1
  Si  Si137  1  0.41756003  0.89521167  0.62381334  1
  Si  Si138  1  0.75089336  0.22854501  0.12381334  1
  Si  Si139  1  0.75089336  0.22854501  0.62381334  1
  Si  Si140  1  0.75089336  0.56187834  0.12381334  1
  Si  Si141  1  0.75089336  0.56187834  0.62381334  1
  Si  Si142  1  0.75089336  0.89521167  0.12381334  1
  Si  Si143  1  0.75089336  0.89521167  0.62381334  1
  O  O144  1  0.10285504  0.26404577  0.22168596  1
  O  O145  1  0.10285504  0.26404577  0.72168596  1
  O  O146  1  0.10285504  0.59737911  0.22168596  1
  O  O147  1  0.10285504  0.59737911  0.72168596  1
  O  O148  1  0.10285504  0.93071244  0.22168596  1
  O  O149  1  0.10285504  0.93071244  0.72168596  1
  O  O150  1  0.43618837  0.26404577  0.22168596  1
  O  O151  1  0.43618837  0.26404577  0.72168596  1
  O  O152  1  0.43618837  0.59737911  0.22168596  1
  O  O153  1  0.43618837  0.59737911  0.72168596  1
  O  O154  1  0.43618837  0.93071244  0.22168596  1
  O  O155  1  0.43618837  0.93071244  0.72168596  1
  O  O156  1  0.76952171  0.26404577  0.22168596  1
  O  O157  1  0.76952171  0.26404577  0.72168596  1
  O  O158  1  0.76952171  0.59737911  0.22168596  1
  O  O159  1  0.76952171  0.59737911  0.72168596  1
  O  O160  1  0.76952171  0.93071244  0.22168596  1
  O  O161  1  0.76952171  0.93071244  0.72168596  1
  O  O162  1  0.10285504  0.06928756  0.47168596  1
  O  O163  1  0.10285504  0.06928756  0.97168596  1
  O  O164  1  0.10285504  0.40262089  0.47168596  1
  O  O165  1  0.10285504  0.40262089  0.97168596  1
  O  O166  1  0.10285504  0.73595423  0.47168596  1
  O  O167  1  0.10285504  0.73595423  0.97168596  1
  O  O168  1  0.43618837  0.06928756  0.47168596  1
  O  O169  1  0.43618837  0.06928756  0.97168596  1
  O  O170  1  0.43618837  0.40262089  0.47168596  1
  O  O171  1  0.43618837  0.40262089  0.97168596  1
  O  O172  1  0.43618837  0.73595423  0.47168596  1
  O  O173  1  0.43618837  0.73595423  0.97168596  1
  O  O174  1  0.76952171  0.06928756  0.47168596  1
  O  O175  1  0.76952171  0.06928756  0.97168596  1
  O  O176  1  0.76952171  0.40262089  0.47168596  1
  O  O177  1  0.76952171  0.40262089  0.97168596  1
  O  O178  1  0.76952171  0.73595423  0.47168596  1
  O  O179  1  0.76952171  0.73595423  0.97168596  1
  O  O180  1  0.32532998  0.28070218  0.02693234  1
  O  O181  1  0.32532998  0.28070218  0.52693234  1
  O  O182  1  0.32532998  0.61403551  0.02693234  1
  O  O183  1  0.32532998  0.61403551  0.52693234  1
  O  O184  1  0.32532998  0.94736885  0.02693234  1
  O  O185  1  0.32532998  0.94736885  0.52693234  1
  O  O186  1  0.65866331  0.28070218  0.02693234  1
  O  O187  1  0.65866331  0.28070218  0.52693234  1
  O  O188  1  0.65866331  0.61403551  0.02693234  1
  O  O189  1  0.65866331  0.61403551  0.52693234  1
  O  O190  1  0.65866331  0.94736885  0.02693234  1
  O  O191  1  0.65866331  0.94736885  0.52693234  1
  O  O192  1  0.99199665  0.28070218  0.02693234  1
  O  O193  1  0.99199665  0.28070218  0.52693234  1
  O  O194  1  0.99199665  0.61403551  0.02693234  1
  O  O195  1  0.99199665  0.61403551  0.52693234  1
  O  O196  1  0.99199665  0.94736885  0.02693234  1
  O  O197  1  0.99199665  0.94736885  0.52693234  1
  O  O198  1  0.32532998  0.05263115  0.27693234  1
  O  O199  1  0.32532998  0.05263115  0.77693234  1
  O  O200  1  0.32532998  0.38596449  0.27693234  1
  O  O201  1  0.32532998  0.38596449  0.77693234  1
  O  O202  1  0.32532998  0.71929782  0.27693234  1
  O  O203  1  0.32532998  0.71929782  0.77693234  1
  O  O204  1  0.65866331  0.05263115  0.27693234  1
  O  O205  1  0.65866331  0.05263115  0.77693234  1
  O  O206  1  0.65866331  0.38596449  0.27693234  1
  O  O207  1  0.65866331  0.38596449  0.77693234  1
  O  O208  1  0.65866331  0.71929782  0.27693234  1
  O  O209  1  0.65866331  0.71929782  0.77693234  1
  O  O210  1  0.99199665  0.05263115  0.27693234  1
  O  O211  1  0.99199665  0.05263115  0.77693234  1
  O  O212  1  0.99199665  0.38596449  0.27693234  1
  O  O213  1  0.99199665  0.38596449  0.77693234  1
  O  O214  1  0.99199665  0.71929782  0.27693234  1
  O  O215  1  0.99199665  0.71929782  0.77693234  1
  O  O216  1  0.19672065  0.09666170  0.38721836  1
  O  O217  1  0.19672065  0.09666170  0.88721836  1
  O  O218  1  0.19672065  0.42999503  0.38721836  1
  O  O219  1  0.19672065  0.42999503  0.88721836  1
  O  O220  1  0.19672065  0.76332836  0.38721836  1
  O  O221  1  0.19672065  0.76332836  0.88721836  1
  O  O222  1  0.53005398  0.09666170  0.38721836  1
  O  O223  1  0.53005398  0.09666170  0.88721836  1
  O  O224  1  0.53005398  0.42999503  0.38721836  1
  O  O225  1  0.53005398  0.42999503  0.88721836  1
  O  O226  1  0.53005398  0.76332836  0.38721836  1
  O  O227  1  0.53005398  0.76332836  0.88721836  1
  O  O228  1  0.86338731  0.09666170  0.38721836  1
  O  O229  1  0.86338731  0.09666170  0.88721836  1
  O  O230  1  0.86338731  0.42999503  0.38721836  1
  O  O231  1  0.86338731  0.42999503  0.88721836  1
  O  O232  1  0.86338731  0.76332836  0.38721836  1
  O  O233  1  0.86338731  0.76332836  0.88721836  1
  O  O234  1  0.04928983  0.20108241  0.35992466  1
  O  O235  1  0.04928983  0.20108241  0.85992466  1
  O  O236  1  0.04928983  0.53441574  0.35992466  1
  O  O237  1  0.04928983  0.53441574  0.85992466  1
  O  O238  1  0.04928983  0.86774907  0.35992466  1
  O  O239  1  0.04928983  0.86774907  0.85992466  1
  O  O240  1  0.38262316  0.20108241  0.35992466  1
  O  O241  1  0.38262316  0.20108241  0.85992466  1
  O  O242  1  0.38262316  0.53441574  0.35992466  1
  O  O243  1  0.38262316  0.53441574  0.85992466  1
  O  O244  1  0.38262316  0.86774907  0.35992466  1
  O  O245  1  0.38262316  0.86774907  0.85992466  1
  O  O246  1  0.71595650  0.20108241  0.35992466  1
  O  O247  1  0.71595650  0.20108241  0.85992466  1
  O  O248  1  0.71595650  0.53441574  0.35992466  1
  O  O249  1  0.71595650  0.53441574  0.85992466  1
  O  O250  1  0.71595650  0.86774907  0.35992466  1
  O  O251  1  0.71595650  0.86774907  0.85992466  1
  O  O252  1  0.04928983  0.13225093  0.10992466  1
  O  O253  1  0.04928983  0.13225093  0.60992466  1
  O  O254  1  0.04928983  0.46558426  0.10992466  1
  O  O255  1  0.04928983  0.46558426  0.60992466  1
  O  O256  1  0.04928983  0.79891759  0.10992466  1
  O  O257  1  0.04928983  0.79891759  0.60992466  1
  O  O258  1  0.38262316  0.13225093  0.10992466  1
  O  O259  1  0.38262316  0.13225093  0.60992466  1
  O  O260  1  0.38262316  0.46558426  0.10992466  1
  O  O261  1  0.38262316  0.46558426  0.60992466  1
  O  O262  1  0.38262316  0.79891759  0.10992466  1
  O  O263  1  0.38262316  0.79891759  0.60992466  1
  O  O264  1  0.71595650  0.13225093  0.10992466  1
  O  O265  1  0.71595650  0.13225093  0.60992466  1
  O  O266  1  0.71595650  0.46558426  0.10992466  1
  O  O267  1  0.71595650  0.46558426  0.60992466  1
  O  O268  1  0.71595650  0.79891759  0.10992466  1
  O  O269  1  0.71595650  0.79891759  0.60992466  1
  O  O270  1  0.19672065  0.23667164  0.13721836  1
  O  O271  1  0.19672065  0.23667164  0.63721836  1
  O  O272  1  0.19672065  0.57000497  0.13721836  1
  O  O273  1  0.19672065  0.57000497  0.63721836  1
  O  O274  1  0.19672065  0.90333830  0.13721836  1
  O  O275  1  0.19672065  0.90333830  0.63721836  1
  O  O276  1  0.53005398  0.23667164  0.13721836  1
  O  O277  1  0.53005398  0.23667164  0.63721836  1
  O  O278  1  0.53005398  0.57000497  0.13721836  1
  O  O279  1  0.53005398  0.57000497  0.63721836  1
  O  O280  1  0.53005398  0.90333830  0.13721836  1
  O  O281  1  0.53005398  0.90333830  0.63721836  1
  O  O282  1  0.86338731  0.23667164  0.13721836  1
  O  O283  1  0.86338731  0.23667164  0.63721836  1
  O  O284  1  0.86338731  0.57000497  0.13721836  1
  O  O285  1  0.86338731  0.57000497  0.63721836  1
  O  O286  1  0.86338731  0.90333830  0.13721836  1
  O  O287  1  0.86338731  0.90333830  0.63721836  1
