# generated using pymatgen
data_Sr2MgSi2O7
_symmetry_space_group_name_H-M   'P 1'
_cell_length_a   16.02501023
_cell_length_b   16.02501023
_cell_length_c   15.45062321
_cell_angle_alpha   90.00000000
_cell_angle_beta   90.00000000
_cell_angle_gamma   90.00000000
_symmetry_Int_Tables_number   1
_chemical_formula_structural   Sr2MgSi2O7
_chemical_formula_sum   'Sr48 Mg24 Si48 O168'
_cell_volume   3967.73476215
_cell_formula_units_Z   24
loop_
 _symmetry_equiv_pos_site_id
 _symmetry_equiv_pos_as_xyz
  1  'x, y, z'
loop_
 _atom_site_type_symbol
 _atom_site_label
 _atom_site_symmetry_multiplicity
 _atom_site_fract_x
 _atom_site_fract_y
 _atom_site_fract_z
 _atom_site_occupancy
  Sr  Sr0  1  0.08267657  0.16732343  0.16928044  1
  Sr  Sr1  1  0.08267657  0.16732343  0.50261378  1
  Sr  Sr2  1  0.08267657  0.16732343  0.83594711  1
  Sr  Sr3  1  0.58267657  0.16732343  0.16928044  1
  Sr  Sr4  1  0.58267657  0.16732343  0.50261378  1
  Sr  Sr5  1  0.58267657  0.16732343  0.83594711  1
  Sr  Sr6  1  0.08267657  -0.33267657  0.16928044  1
  Sr  Sr7  1  0.08267657  -0.33267657  0.50261378  1
  Sr  Sr8  1  0.08267657  -0.33267657  0.83594711  1
  Sr  Sr9  1  0.58267657  -0.33267657  0.16928044  1
  Sr  Sr10  1  0.58267657  -0.33267657  0.50261378  1
  Sr  Sr11  1  0.58267657  -0.33267657  0.83594711  1
  Sr  Sr12  1  0.33267657  0.08267657  0.16405289  1
  Sr  Sr13  1  0.33267657  0.08267657  0.49738622  1
  Sr  Sr14  1  0.33267657  0.08267657  0.83071956  1
  Sr  Sr15  1  0.83267657  0.08267657  0.16405289  1
  Sr  Sr16  1  0.83267657  0.08267657  0.49738622  1
  Sr  Sr17  1  0.83267657  0.08267657  0.83071956  1
  Sr  Sr18  1  0.33267657  -0.41732343  0.16405289  1
  Sr  Sr19  1  0.33267657  -0.41732343  0.49738622  1
  Sr  Sr20  1  0.33267657  -0.41732343  0.83071956  1
  Sr  Sr21  1  0.83267657  -0.41732343  0.16405289  1
  Sr  Sr22  1  0.83267657  -0.41732343  0.49738622  1
  Sr  Sr23  1  0.83267657  -0.41732343  0.83071956  1
  Sr  Sr24  1  0.16732343  0.41732343  0.16405289  1
  Sr  Sr25  1  0.16732343  0.41732343  0.49738622  1
  Sr  Sr26  1  0.16732343  0.41732343  0.83071956  1
  Sr  Sr27  1  0.66732343  0.41732343  0.16405289  1
  Sr  Sr28  1  0.66732343  0.41732343  0.49738622  1
  Sr  Sr29  1  0.66732343  0.41732343  0.83071956  1
  Sr  Sr30  1  0.16732343  -0.08267657  0.16405289  1
  Sr  Sr31  1  0.16732343  -0.08267657  0.49738622  1
  Sr  Sr32  1  0.16732343  -0.08267657  0.83071956  1
  Sr  Sr33  1  0.66732343  -0.08267657  0.16405289  1
  Sr  Sr34  1  0.66732343  -0.08267657  0.49738622  1
  Sr  Sr35  1  0.66732343  -0.08267657  0.83071956  1
  Sr  Sr36  1  0.41732343  0.33267657  0.16928044  1
  Sr  Sr37  1  0.41732343  0.33267657  0.50261378  1
  Sr  Sr38  1  0.41732343  0.33267657  0.83594711  1
  Sr  Sr39  1  0.91732343  0.33267657  0.16928044  1
  Sr  Sr40  1  0.91732343  0.33267657  0.50261378  1
  Sr  Sr41  1  0.91732343  0.33267657  0.83594711  1
  Sr  Sr42  1  0.41732343  -0.16732343  0.16928044  1
  Sr  Sr43  1  0.41732343  -0.16732343  0.50261378  1
  Sr  Sr44  1  0.41732343  -0.16732343  0.83594711  1
  Sr  Sr45  1  0.91732343  -0.16732343  0.16928044  1
  Sr  Sr46  1  0.91732343  -0.16732343  0.50261378  1
  Sr  Sr47  1  0.91732343  -0.16732343  0.83594711  1
  Mg  Mg48  1  0.00000000  0.50000000  0.00000000  1
  Mg  Mg49  1  0.00000000  0.50000000  0.33333333  1
  Mg  Mg50  1  0.00000000  0.50000000  0.66666667  1
  Mg  Mg51  1  0.50000000  0.50000000  0.00000000  1
  Mg  Mg52  1  0.50000000  0.50000000  0.33333333  1
  Mg  Mg53  1  0.50000000  0.50000000  0.66666667  1
  Mg  Mg54  1  0.00000000  0.00000000  0.00000000  1
  Mg  Mg55  1  0.00000000  0.00000000  0.33333333  1
  Mg  Mg56  1  0.00000000  0.00000000  0.66666667  1
  Mg  Mg57  1  0.50000000  0.00000000  0.00000000  1
  Mg  Mg58  1  0.50000000  0.00000000  0.33333333  1
  Mg  Mg59  1  0.50000000  0.00000000  0.66666667  1
  Mg  Mg60  1  0.25000000  0.25000000  0.00000000  1
  Mg  Mg61  1  0.25000000  0.25000000  0.33333333  1
  Mg  Mg62  1  0.25000000  0.25000000  0.66666667  1
  Mg  Mg63  1  0.75000000  0.25000000  0.00000000  1
  Mg  Mg64  1  0.75000000  0.25000000  0.33333333  1
  Mg  Mg65  1  0.75000000  0.25000000  0.66666667  1
  Mg  Mg66  1  0.25000000  -0.25000000  0.00000000  1
  Mg  Mg67  1  0.25000000  -0.25000000  0.33333333  1
  Mg  Mg68  1  0.25000000  -0.25000000  0.66666667  1
  Mg  Mg69  1  0.75000000  -0.25000000  0.00000000  1
  Mg  Mg70  1  0.75000000  -0.25000000  0.33333333  1
  Mg  Mg71  1  0.75000000  -0.25000000  0.66666667  1
  Si  Si72  1  0.18040646  0.06959354  0.31447170  1
  Si  Si73  1  0.18040646  0.06959354  0.64780503  1
  Si  Si74  1  0.18040646  0.06959354  0.98113837  1
  Si  Si75  1  0.68040646  0.06959354  0.31447170  1
  Si  Si76  1  0.68040646  0.06959354  0.64780503  1
  Si  Si77  1  0.68040646  0.06959354  0.98113837  1
  Si  Si78  1  0.18040646  -0.43040646  0.31447170  1
  Si  Si79  1  0.18040646  -0.43040646  0.64780503  1
  Si  Si80  1  0.18040646  -0.43040646  0.98113837  1
  Si  Si81  1  0.68040646  -0.43040646  0.31447170  1
  Si  Si82  1  0.68040646  -0.43040646  0.64780503  1
  Si  Si83  1  0.68040646  -0.43040646  0.98113837  1
  Si  Si84  1  0.31959354  0.43040646  0.31447170  1
  Si  Si85  1  0.31959354  0.43040646  0.64780503  1
  Si  Si86  1  0.31959354  0.43040646  0.98113837  1
  Si  Si87  1  0.81959354  0.43040646  0.31447170  1
  Si  Si88  1  0.81959354  0.43040646  0.64780503  1
  Si  Si89  1  0.81959354  0.43040646  0.98113837  1
  Si  Si90  1  0.31959354  -0.06959354  0.31447170  1
  Si  Si91  1  0.31959354  -0.06959354  0.64780503  1
  Si  Si92  1  0.31959354  -0.06959354  0.98113837  1
  Si  Si93  1  0.81959354  -0.06959354  0.31447170  1
  Si  Si94  1  0.81959354  -0.06959354  0.64780503  1
  Si  Si95  1  0.81959354  -0.06959354  0.98113837  1
  Si  Si96  1  0.43040646  0.18040646  0.01886163  1
  Si  Si97  1  0.43040646  0.18040646  0.35219497  1
  Si  Si98  1  0.43040646  0.18040646  0.68552830  1
  Si  Si99  1  0.93040646  0.18040646  0.01886163  1
  Si  Si100  1  0.93040646  0.18040646  0.35219497  1
  Si  Si101  1  0.93040646  0.18040646  0.68552830  1
  Si  Si102  1  0.43040646  -0.31959354  0.01886163  1
  Si  Si103  1  0.43040646  -0.31959354  0.35219497  1
  Si  Si104  1  0.43040646  -0.31959354  0.68552830  1
  Si  Si105  1  0.93040646  -0.31959354  0.01886163  1
  Si  Si106  1  0.93040646  -0.31959354  0.35219497  1
  Si  Si107  1  0.93040646  -0.31959354  0.68552830  1
  Si  Si108  1  0.06959354  0.31959354  0.01886163  1
  Si  Si109  1  0.06959354  0.31959354  0.35219497  1
  Si  Si110  1  0.06959354  0.31959354  0.68552830  1
  Si  Si111  1  0.56959354  0.31959354  0.01886163  1
  Si  Si112  1  0.56959354  0.31959354  0.35219497  1
  Si  Si113  1  0.56959354  0.31959354  0.68552830  1
  Si  Si114  1  0.06959354  -0.18040646  0.01886163  1
  Si  Si115  1  0.06959354  -0.18040646  0.35219497  1
  Si  Si116  1  0.06959354  -0.18040646  0.68552830  1
  Si  Si117  1  0.56959354  -0.18040646  0.01886163  1
  Si  Si118  1  0.56959354  -0.18040646  0.35219497  1
  Si  Si119  1  0.56959354  -0.18040646  0.68552830  1
  O  O120  1  0.21027013  0.15559626  0.26625528  1
  O  O121  1  0.21027013  0.15559626  0.59958861  1
  O  O122  1  0.21027013  0.15559626  0.93292195  1
  O  O123  1  0.71027013  0.15559626  0.26625528  1
  O  O124  1  0.71027013  0.15559626  0.59958861  1
  O  O125  1  0.71027013  0.15559626  0.93292195  1
  O  O126  1  0.21027013  -0.34440374  0.26625528  1
  O  O127  1  0.21027013  -0.34440374  0.59958861  1
  O  O128  1  0.21027013  -0.34440374  0.93292195  1
  O  O129  1  0.71027013  -0.34440374  0.26625528  1
  O  O130  1  0.71027013  -0.34440374  0.59958861  1
  O  O131  1  0.71027013  -0.34440374  0.93292195  1
  O  O132  1  0.28972987  0.34440374  0.26625528  1
  O  O133  1  0.28972987  0.34440374  0.59958861  1
  O  O134  1  0.28972987  0.34440374  0.93292195  1
  O  O135  1  0.78972987  0.34440374  0.26625528  1
  O  O136  1  0.78972987  0.34440374  0.59958861  1
  O  O137  1  0.78972987  0.34440374  0.93292195  1
  O  O138  1  0.28972987  -0.15559626  0.26625528  1
  O  O139  1  0.28972987  -0.15559626  0.59958861  1
  O  O140  1  0.28972987  -0.15559626  0.93292195  1
  O  O141  1  0.78972987  -0.15559626  0.26625528  1
  O  O142  1  0.78972987  -0.15559626  0.59958861  1
  O  O143  1  0.78972987  -0.15559626  0.93292195  1
  O  O144  1  0.15559626  0.28972987  0.06707805  1
  O  O145  1  0.15559626  0.28972987  0.40041139  1
  O  O146  1  0.15559626  0.28972987  0.73374472  1
  O  O147  1  0.65559626  0.28972987  0.06707805  1
  O  O148  1  0.65559626  0.28972987  0.40041139  1
  O  O149  1  0.65559626  0.28972987  0.73374472  1
  O  O150  1  0.15559626  -0.21027013  0.06707805  1
  O  O151  1  0.15559626  -0.21027013  0.40041139  1
  O  O152  1  0.15559626  -0.21027013  0.73374472  1
  O  O153  1  0.65559626  -0.21027013  0.06707805  1
  O  O154  1  0.65559626  -0.21027013  0.40041139  1
  O  O155  1  0.65559626  -0.21027013  0.73374472  1
  O  O156  1  0.34440374  0.21027013  0.06707805  1
  O  O157  1  0.34440374  0.21027013  0.40041139  1
  O  O158  1  0.34440374  0.21027013  0.73374472  1
  O  O159  1  0.84440374  0.21027013  0.06707805  1
  O  O160  1  0.84440374  0.21027013  0.40041139  1
  O  O161  1  0.84440374  0.21027013  0.73374472  1
  O  O162  1  0.34440374  -0.28972987  0.06707805  1
  O  O163  1  0.34440374  -0.28972987  0.40041139  1
  O  O164  1  0.34440374  -0.28972987  0.73374472  1
  O  O165  1  0.84440374  -0.28972987  0.06707805  1
  O  O166  1  0.84440374  -0.28972987  0.40041139  1
  O  O167  1  0.84440374  -0.28972987  0.73374472  1
  O  O168  1  0.09440374  0.03972987  0.26625528  1
  O  O169  1  0.09440374  0.03972987  0.59958861  1
  O  O170  1  0.09440374  0.03972987  0.93292195  1
  O  O171  1  0.59440374  0.03972987  0.26625528  1
  O  O172  1  0.59440374  0.03972987  0.59958861  1
  O  O173  1  0.59440374  0.03972987  0.93292195  1
  O  O174  1  0.09440374  -0.46027013  0.26625528  1
  O  O175  1  0.09440374  -0.46027013  0.59958861  1
  O  O176  1  0.09440374  -0.46027013  0.93292195  1
  O  O177  1  0.59440374  -0.46027013  0.26625528  1
  O  O178  1  0.59440374  -0.46027013  0.59958861  1
  O  O179  1  0.59440374  -0.46027013  0.93292195  1
  O  O180  1  0.46027013  0.09440374  0.06707805  1
  O  O181  1  0.46027013  0.09440374  0.40041139  1
  O  O182  1  0.46027013  0.09440374  0.73374472  1
  O  O183  1  0.96027013  0.09440374  0.06707805  1
  O  O184  1  0.96027013  0.09440374  0.40041139  1
  O  O185  1  0.96027013  0.09440374  0.73374472  1
  O  O186  1  0.46027013  -0.40559626  0.06707805  1
  O  O187  1  0.46027013  -0.40559626  0.40041139  1
  O  O188  1  0.46027013  -0.40559626  0.73374472  1
  O  O189  1  0.96027013  -0.40559626  0.06707805  1
  O  O190  1  0.96027013  -0.40559626  0.40041139  1
  O  O191  1  0.96027013  -0.40559626  0.73374472  1
  O  O192  1  0.03972987  0.40559626  0.06707805  1
  O  O193  1  0.03972987  0.40559626  0.40041139  1
  O  O194  1  0.03972987  0.40559626  0.73374472  1
  O  O195  1  0.53972987  0.40559626  0.06707805  1
  O  O196  1  0.53972987  0.40559626  0.40041139  1
  O  O197  1  0.53972987  0.40559626  0.73374472  1
  O  O198  1  0.03972987  -0.09440374  0.06707805  1
  O  O199  1  0.03972987  -0.09440374  0.40041139  1
  O  O200  1  0.03972987  -0.09440374  0.73374472  1
  O  O201  1  0.53972987  -0.09440374  0.06707805  1
  O  O202  1  0.53972987  -0.09440374  0.40041139  1
  O  O203  1  0.53972987  -0.09440374  0.73374472  1
  O  O204  1  0.40559626  0.46027013  0.26625528  1
  O  O205  1  0.40559626  0.46027013  0.59958861  1
  O  O206  1  0.40559626  0.46027013  0.93292195  1
  O  O207  1  0.90559626  0.46027013  0.26625528  1
  O  O208  1  0.90559626  0.46027013  0.59958861  1
  O  O209  1  0.90559626  0.46027013  0.93292195  1
  O  O210  1  0.40559626  -0.03972987  0.26625528  1
  O  O211  1  0.40559626  -0.03972987  0.59958861  1
  O  O212  1  0.40559626  -0.03972987  0.93292195  1
  O  O213  1  0.90559626  -0.03972987  0.26625528  1
  O  O214  1  0.90559626  -0.03972987  0.59958861  1
  O  O215  1  0.90559626  -0.03972987  0.93292195  1
  O  O216  1  0.18007721  0.06992279  0.08569744  1
  O  O217  1  0.18007721  0.06992279  0.41903077  1
  O  O218  1  0.18007721  0.06992279  0.75236410  1
  O  O219  1  0.68007721  0.06992279  0.08569744  1
  O  O220  1  0.68007721  0.06992279  0.41903077  1
  O  O221  1  0.68007721  0.06992279  0.75236410  1
  O  O222  1  0.18007721  -0.43007721  0.08569744  1
  O  O223  1  0.18007721  -0.43007721  0.41903077  1
  O  O224  1  0.18007721  -0.43007721  0.75236410  1
  O  O225  1  0.68007721  -0.43007721  0.08569744  1
  O  O226  1  0.68007721  -0.43007721  0.41903077  1
  O  O227  1  0.68007721  -0.43007721  0.75236410  1
  O  O228  1  0.43007721  0.18007721  0.24763590  1
  O  O229  1  0.43007721  0.18007721  0.58096923  1
  O  O230  1  0.43007721  0.18007721  0.91430256  1
  O  O231  1  0.93007721  0.18007721  0.24763590  1
  O  O232  1  0.93007721  0.18007721  0.58096923  1
  O  O233  1  0.93007721  0.18007721  0.91430256  1
  O  O234  1  0.43007721  -0.31992279  0.24763590  1
  O  O235  1  0.43007721  -0.31992279  0.58096923  1
  O  O236  1  0.43007721  -0.31992279  0.91430256  1
  O  O237  1  0.93007721  -0.31992279  0.24763590  1
  O  O238  1  0.93007721  -0.31992279  0.58096923  1
  O  O239  1  0.93007721  -0.31992279  0.91430256  1
  O  O240  1  0.00000000  0.25000000  0.05541340  1
  O  O241  1  0.00000000  0.25000000  0.38874674  1
  O  O242  1  0.00000000  0.25000000  0.72208007  1
  O  O243  1  0.50000000  0.25000000  0.05541340  1
  O  O244  1  0.50000000  0.25000000  0.38874674  1
  O  O245  1  0.50000000  0.25000000  0.72208007  1
  O  O246  1  0.00000000  -0.25000000  0.05541340  1
  O  O247  1  0.00000000  -0.25000000  0.38874674  1
  O  O248  1  0.00000000  -0.25000000  0.72208007  1
  O  O249  1  0.50000000  -0.25000000  0.05541340  1
  O  O250  1  0.50000000  -0.25000000  0.38874674  1
  O  O251  1  0.50000000  -0.25000000  0.72208007  1
  O  O252  1  0.25000000  0.50000000  0.27791993  1
  O  O253  1  0.25000000  0.50000000  0.61125326  1
  O  O254  1  0.25000000  0.50000000  0.94458660  1
  O  O255  1  0.75000000  0.50000000  0.27791993  1
  O  O256  1  0.75000000  0.50000000  0.61125326  1
  O  O257  1  0.75000000  0.50000000  0.94458660  1
  O  O258  1  0.25000000  0.00000000  0.27791993  1
  O  O259  1  0.25000000  0.00000000  0.61125326  1
  O  O260  1  0.25000000  0.00000000  0.94458660  1
  O  O261  1  0.75000000  0.00000000  0.27791993  1
  O  O262  1  0.75000000  0.00000000  0.61125326  1
  O  O263  1  0.75000000  0.00000000  0.94458660  1
  O  O264  1  0.31992279  0.43007721  0.08569744  1
  O  O265  1  0.31992279  0.43007721  0.41903077  1
  O  O266  1  0.31992279  0.43007721  0.75236410  1
  O  O267  1  0.81992279  0.43007721  0.08569744  1
  O  O268  1  0.81992279  0.43007721  0.41903077  1
  O  O269  1  0.81992279  0.43007721  0.75236410  1
  O  O270  1  0.31992279  -0.06992279  0.08569744  1
  O  O271  1  0.31992279  -0.06992279  0.41903077  1
  O  O272  1  0.31992279  -0.06992279  0.75236410  1
  O  O273  1  0.81992279  -0.06992279  0.08569744  1
  O  O274  1  0.81992279  -0.06992279  0.41903077  1
  O  O275  1  0.81992279  -0.06992279  0.75236410  1
  O  O276  1  0.06992279  0.31992279  0.24763590  1
  O  O277  1  0.06992279  0.31992279  0.58096923  1
  O  O278  1  0.06992279  0.31992279  0.91430256  1
  O  O279  1  0.56992279  0.31992279  0.24763590  1
  O  O280  1  0.56992279  0.31992279  0.58096923  1
  O  O281  1  0.56992279  0.31992279  0.91430256  1
  O  O282  1  0.06992279  -0.18007721  0.24763590  1
  O  O283  1  0.06992279  -0.18007721  0.58096923  1
  O  O284  1  0.06992279  -0.18007721  0.91430256  1
  O  O285  1  0.56992279  -0.18007721  0.24763590  1
  O  O286  1  0.56992279  -0.18007721  0.58096923  1
  O  O287  1  0.56992279  -0.18007721  0.91430256  1
