# generated using pymatgen
data_Li2MgGeO4
_symmetry_space_group_name_H-M   'P 1'
_cell_length_a   19.01053957
_cell_length_b   16.52221688
_cell_length_c   15.02079880
_cell_angle_alpha   90.00000000
_cell_angle_beta   90.00000000
_cell_angle_gamma   90.00000000
_symmetry_Int_Tables_number   1
_chemical_formula_structural   Li2MgGeO4
_chemical_formula_sum   'Li108 Mg54 Ge54 O216'
_cell_volume   4717.97669233
_cell_formula_units_Z   54
loop_
 _symmetry_equiv_pos_site_id
 _symmetry_equiv_pos_as_xyz
  1  'x, y, z'
loop_
 _atom_site_type_symbol
 _atom_site_label
 _atom_site_symmetry_multiplicity
 _atom_site_fract_x
 _atom_site_fract_y
 _atom_site_fract_z
 _atom_site_occupancy
  Li  Li0  1  0.24970075  0.27766826  0.16659991  1
  Li  Li1  1  0.24970075  0.27766826  0.49993324  1
  Li  Li2  1  0.24970075  0.27766826  0.83326657  1
  Li  Li3  1  0.24970075  0.61100159  0.16659991  1
  Li  Li4  1  0.24970075  0.61100159  0.49993324  1
  Li  Li5  1  0.24970075  0.61100159  0.83326657  1
  Li  Li6  1  0.24970075  0.94433493  0.16659991  1
  Li  Li7  1  0.24970075  0.94433493  0.49993324  1
  Li  Li8  1  0.24970075  0.94433493  0.83326657  1
  Li  Li9  1  0.58303409  0.27766826  0.16659991  1
  Li  Li10  1  0.58303409  0.27766826  0.49993324  1
  Li  Li11  1  0.58303409  0.27766826  0.83326657  1
  Li  Li12  1  0.58303409  0.61100159  0.16659991  1
  Li  Li13  1  0.58303409  0.61100159  0.49993324  1
  Li  Li14  1  0.58303409  0.61100159  0.83326657  1
  Li  Li15  1  0.58303409  0.94433493  0.16659991  1
  Li  Li16  1  0.58303409  0.94433493  0.49993324  1
  Li  Li17  1  0.58303409  0.94433493  0.83326657  1
  Li  Li18  1  0.91636742  0.27766826  0.16659991  1
  Li  Li19  1  0.91636742  0.27766826  0.49993324  1
  Li  Li20  1  0.91636742  0.27766826  0.83326657  1
  Li  Li21  1  0.91636742  0.61100159  0.16659991  1
  Li  Li22  1  0.91636742  0.61100159  0.49993324  1
  Li  Li23  1  0.91636742  0.61100159  0.83326657  1
  Li  Li24  1  0.91636742  0.94433493  0.16659991  1
  Li  Li25  1  0.91636742  0.94433493  0.49993324  1
  Li  Li26  1  0.91636742  0.94433493  0.83326657  1
  Li  Li27  1  0.25029925  0.05566507  0.33326657  1
  Li  Li28  1  0.25029925  0.05566507  0.66659991  1
  Li  Li29  1  0.25029925  0.05566507  0.99993324  1
  Li  Li30  1  0.25029925  0.38899841  0.33326657  1
  Li  Li31  1  0.25029925  0.38899841  0.66659991  1
  Li  Li32  1  0.25029925  0.38899841  0.99993324  1
  Li  Li33  1  0.25029925  0.72233174  0.33326657  1
  Li  Li34  1  0.25029925  0.72233174  0.66659991  1
  Li  Li35  1  0.25029925  0.72233174  0.99993324  1
  Li  Li36  1  0.58363258  0.05566507  0.33326657  1
  Li  Li37  1  0.58363258  0.05566507  0.66659991  1
  Li  Li38  1  0.58363258  0.05566507  0.99993324  1
  Li  Li39  1  0.58363258  0.38899841  0.33326657  1
  Li  Li40  1  0.58363258  0.38899841  0.66659991  1
  Li  Li41  1  0.58363258  0.38899841  0.99993324  1
  Li  Li42  1  0.58363258  0.72233174  0.33326657  1
  Li  Li43  1  0.58363258  0.72233174  0.66659991  1
  Li  Li44  1  0.58363258  0.72233174  0.99993324  1
  Li  Li45  1  0.91696591  0.05566507  0.33326657  1
  Li  Li46  1  0.91696591  0.05566507  0.66659991  1
  Li  Li47  1  0.91696591  0.05566507  0.99993324  1
  Li  Li48  1  0.91696591  0.38899841  0.33326657  1
  Li  Li49  1  0.91696591  0.38899841  0.66659991  1
  Li  Li50  1  0.91696591  0.38899841  0.99993324  1
  Li  Li51  1  0.91696591  0.72233174  0.33326657  1
  Li  Li52  1  0.91696591  0.72233174  0.66659991  1
  Li  Li53  1  0.91696591  0.72233174  0.99993324  1
  Li  Li54  1  0.08303409  0.05566507  0.33326657  1
  Li  Li55  1  0.08303409  0.05566507  0.66659991  1
  Li  Li56  1  0.08303409  0.05566507  0.99993324  1
  Li  Li57  1  0.08303409  0.38899841  0.33326657  1
  Li  Li58  1  0.08303409  0.38899841  0.66659991  1
  Li  Li59  1  0.08303409  0.38899841  0.99993324  1
  Li  Li60  1  0.08303409  0.72233174  0.33326657  1
  Li  Li61  1  0.08303409  0.72233174  0.66659991  1
  Li  Li62  1  0.08303409  0.72233174  0.99993324  1
  Li  Li63  1  0.41636742  0.05566507  0.33326657  1
  Li  Li64  1  0.41636742  0.05566507  0.66659991  1
  Li  Li65  1  0.41636742  0.05566507  0.99993324  1
  Li  Li66  1  0.41636742  0.38899841  0.33326657  1
  Li  Li67  1  0.41636742  0.38899841  0.66659991  1
  Li  Li68  1  0.41636742  0.38899841  0.99993324  1
  Li  Li69  1  0.41636742  0.72233174  0.33326657  1
  Li  Li70  1  0.41636742  0.72233174  0.66659991  1
  Li  Li71  1  0.41636742  0.72233174  0.99993324  1
  Li  Li72  1  0.74970075  0.05566507  0.33326657  1
  Li  Li73  1  0.74970075  0.05566507  0.66659991  1
  Li  Li74  1  0.74970075  0.05566507  0.99993324  1
  Li  Li75  1  0.74970075  0.38899841  0.33326657  1
  Li  Li76  1  0.74970075  0.38899841  0.66659991  1
  Li  Li77  1  0.74970075  0.38899841  0.99993324  1
  Li  Li78  1  0.74970075  0.72233174  0.33326657  1
  Li  Li79  1  0.74970075  0.72233174  0.66659991  1
  Li  Li80  1  0.74970075  0.72233174  0.99993324  1
  Li  Li81  1  0.08363258  0.27766826  0.16659991  1
  Li  Li82  1  0.08363258  0.27766826  0.49993324  1
  Li  Li83  1  0.08363258  0.27766826  0.83326657  1
  Li  Li84  1  0.08363258  0.61100159  0.16659991  1
  Li  Li85  1  0.08363258  0.61100159  0.49993324  1
  Li  Li86  1  0.08363258  0.61100159  0.83326657  1
  Li  Li87  1  0.08363258  0.94433493  0.16659991  1
  Li  Li88  1  0.08363258  0.94433493  0.49993324  1
  Li  Li89  1  0.08363258  0.94433493  0.83326657  1
  Li  Li90  1  0.41696591  0.27766826  0.16659991  1
  Li  Li91  1  0.41696591  0.27766826  0.49993324  1
  Li  Li92  1  0.41696591  0.27766826  0.83326657  1
  Li  Li93  1  0.41696591  0.61100159  0.16659991  1
  Li  Li94  1  0.41696591  0.61100159  0.49993324  1
  Li  Li95  1  0.41696591  0.61100159  0.83326657  1
  Li  Li96  1  0.41696591  0.94433493  0.16659991  1
  Li  Li97  1  0.41696591  0.94433493  0.49993324  1
  Li  Li98  1  0.41696591  0.94433493  0.83326657  1
  Li  Li99  1  0.75029925  0.27766826  0.16659991  1
  Li  Li100  1  0.75029925  0.27766826  0.49993324  1
  Li  Li101  1  0.75029925  0.27766826  0.83326657  1
  Li  Li102  1  0.75029925  0.61100159  0.16659991  1
  Li  Li103  1  0.75029925  0.61100159  0.49993324  1
  Li  Li104  1  0.75029925  0.61100159  0.83326657  1
  Li  Li105  1  0.75029925  0.94433493  0.16659991  1
  Li  Li106  1  0.75029925  0.94433493  0.49993324  1
  Li  Li107  1  0.75029925  0.94433493  0.83326657  1
  Mg  Mg108  1  0.00000000  0.11081774  0.16648801  1
  Mg  Mg109  1  0.00000000  0.11081774  0.49982134  1
  Mg  Mg110  1  0.00000000  0.11081774  0.83315467  1
  Mg  Mg111  1  0.00000000  0.44415107  0.16648801  1
  Mg  Mg112  1  0.00000000  0.44415107  0.49982134  1
  Mg  Mg113  1  0.00000000  0.44415107  0.83315467  1
  Mg  Mg114  1  0.00000000  0.77748441  0.16648801  1
  Mg  Mg115  1  0.00000000  0.77748441  0.49982134  1
  Mg  Mg116  1  0.00000000  0.77748441  0.83315467  1
  Mg  Mg117  1  0.33333333  0.11081774  0.16648801  1
  Mg  Mg118  1  0.33333333  0.11081774  0.49982134  1
  Mg  Mg119  1  0.33333333  0.11081774  0.83315467  1
  Mg  Mg120  1  0.33333333  0.44415107  0.16648801  1
  Mg  Mg121  1  0.33333333  0.44415107  0.49982134  1
  Mg  Mg122  1  0.33333333  0.44415107  0.83315467  1
  Mg  Mg123  1  0.33333333  0.77748441  0.16648801  1
  Mg  Mg124  1  0.33333333  0.77748441  0.49982134  1
  Mg  Mg125  1  0.33333333  0.77748441  0.83315467  1
  Mg  Mg126  1  0.66666667  0.11081774  0.16648801  1
  Mg  Mg127  1  0.66666667  0.11081774  0.49982134  1
  Mg  Mg128  1  0.66666667  0.11081774  0.83315467  1
  Mg  Mg129  1  0.66666667  0.44415107  0.16648801  1
  Mg  Mg130  1  0.66666667  0.44415107  0.49982134  1
  Mg  Mg131  1  0.66666667  0.44415107  0.83315467  1
  Mg  Mg132  1  0.66666667  0.77748441  0.16648801  1
  Mg  Mg133  1  0.66666667  0.77748441  0.49982134  1
  Mg  Mg134  1  0.66666667  0.77748441  0.83315467  1
  Mg  Mg135  1  0.16666667  0.22251559  0.33315467  1
  Mg  Mg136  1  0.16666667  0.22251559  0.66648801  1
  Mg  Mg137  1  0.16666667  0.22251559  0.99982134  1
  Mg  Mg138  1  0.16666667  0.55584893  0.33315467  1
  Mg  Mg139  1  0.16666667  0.55584893  0.66648801  1
  Mg  Mg140  1  0.16666667  0.55584893  0.99982134  1
  Mg  Mg141  1  0.16666667  0.88918226  0.33315467  1
  Mg  Mg142  1  0.16666667  0.88918226  0.66648801  1
  Mg  Mg143  1  0.16666667  0.88918226  0.99982134  1
  Mg  Mg144  1  0.50000000  0.22251559  0.33315467  1
  Mg  Mg145  1  0.50000000  0.22251559  0.66648801  1
  Mg  Mg146  1  0.50000000  0.22251559  0.99982134  1
  Mg  Mg147  1  0.50000000  0.55584893  0.33315467  1
  Mg  Mg148  1  0.50000000  0.55584893  0.66648801  1
  Mg  Mg149  1  0.50000000  0.55584893  0.99982134  1
  Mg  Mg150  1  0.50000000  0.88918226  0.33315467  1
  Mg  Mg151  1  0.50000000  0.88918226  0.66648801  1
  Mg  Mg152  1  0.50000000  0.88918226  0.99982134  1
  Mg  Mg153  1  0.83333333  0.22251559  0.33315467  1
  Mg  Mg154  1  0.83333333  0.22251559  0.66648801  1
  Mg  Mg155  1  0.83333333  0.22251559  0.99982134  1
  Mg  Mg156  1  0.83333333  0.55584893  0.33315467  1
  Mg  Mg157  1  0.83333333  0.55584893  0.66648801  1
  Mg  Mg158  1  0.83333333  0.55584893  0.99982134  1
  Mg  Mg159  1  0.83333333  0.88918226  0.33315467  1
  Mg  Mg160  1  0.83333333  0.88918226  0.66648801  1
  Mg  Mg161  1  0.83333333  0.88918226  0.99982134  1
  Ge  Ge162  1  0.00000000  0.22435660  0.00226823  1
  Ge  Ge163  1  0.00000000  0.22435660  0.33560157  1
  Ge  Ge164  1  0.00000000  0.22435660  0.66893490  1
  Ge  Ge165  1  0.00000000  0.55768993  0.00226823  1
  Ge  Ge166  1  0.00000000  0.55768993  0.33560157  1
  Ge  Ge167  1  0.00000000  0.55768993  0.66893490  1
  Ge  Ge168  1  0.00000000  0.89102326  0.00226823  1
  Ge  Ge169  1  0.00000000  0.89102326  0.33560157  1
  Ge  Ge170  1  0.00000000  0.89102326  0.66893490  1
  Ge  Ge171  1  0.33333333  0.22435660  0.00226823  1
  Ge  Ge172  1  0.33333333  0.22435660  0.33560157  1
  Ge  Ge173  1  0.33333333  0.22435660  0.66893490  1
  Ge  Ge174  1  0.33333333  0.55768993  0.00226823  1
  Ge  Ge175  1  0.33333333  0.55768993  0.33560157  1
  Ge  Ge176  1  0.33333333  0.55768993  0.66893490  1
  Ge  Ge177  1  0.33333333  0.89102326  0.00226823  1
  Ge  Ge178  1  0.33333333  0.89102326  0.33560157  1
  Ge  Ge179  1  0.33333333  0.89102326  0.66893490  1
  Ge  Ge180  1  0.66666667  0.22435660  0.00226823  1
  Ge  Ge181  1  0.66666667  0.22435660  0.33560157  1
  Ge  Ge182  1  0.66666667  0.22435660  0.66893490  1
  Ge  Ge183  1  0.66666667  0.55768993  0.00226823  1
  Ge  Ge184  1  0.66666667  0.55768993  0.33560157  1
  Ge  Ge185  1  0.66666667  0.55768993  0.66893490  1
  Ge  Ge186  1  0.66666667  0.89102326  0.00226823  1
  Ge  Ge187  1  0.66666667  0.89102326  0.33560157  1
  Ge  Ge188  1  0.66666667  0.89102326  0.66893490  1
  Ge  Ge189  1  0.16666667  0.10897674  0.16893490  1
  Ge  Ge190  1  0.16666667  0.10897674  0.50226823  1
  Ge  Ge191  1  0.16666667  0.10897674  0.83560157  1
  Ge  Ge192  1  0.16666667  0.44231007  0.16893490  1
  Ge  Ge193  1  0.16666667  0.44231007  0.50226823  1
  Ge  Ge194  1  0.16666667  0.44231007  0.83560157  1
  Ge  Ge195  1  0.16666667  0.77564340  0.16893490  1
  Ge  Ge196  1  0.16666667  0.77564340  0.50226823  1
  Ge  Ge197  1  0.16666667  0.77564340  0.83560157  1
  Ge  Ge198  1  0.50000000  0.10897674  0.16893490  1
  Ge  Ge199  1  0.50000000  0.10897674  0.50226823  1
  Ge  Ge200  1  0.50000000  0.10897674  0.83560157  1
  Ge  Ge201  1  0.50000000  0.44231007  0.16893490  1
  Ge  Ge202  1  0.50000000  0.44231007  0.50226823  1
  Ge  Ge203  1  0.50000000  0.44231007  0.83560157  1
  Ge  Ge204  1  0.50000000  0.77564340  0.16893490  1
  Ge  Ge205  1  0.50000000  0.77564340  0.50226823  1
  Ge  Ge206  1  0.50000000  0.77564340  0.83560157  1
  Ge  Ge207  1  0.83333333  0.10897674  0.16893490  1
  Ge  Ge208  1  0.83333333  0.10897674  0.50226823  1
  Ge  Ge209  1  0.83333333  0.10897674  0.83560157  1
  Ge  Ge210  1  0.83333333  0.44231007  0.16893490  1
  Ge  Ge211  1  0.83333333  0.44231007  0.50226823  1
  Ge  Ge212  1  0.83333333  0.44231007  0.83560157  1
  Ge  Ge213  1  0.83333333  0.77564340  0.16893490  1
  Ge  Ge214  1  0.83333333  0.77564340  0.50226823  1
  Ge  Ge215  1  0.83333333  0.77564340  0.83560157  1
  O  O216  1  0.00000000  0.12103870  0.29812789  1
  O  O217  1  0.00000000  0.12103870  0.63146123  1
  O  O218  1  0.00000000  0.12103870  0.96479456  1
  O  O219  1  0.00000000  0.45437204  0.29812789  1
  O  O220  1  0.00000000  0.45437204  0.63146123  1
  O  O221  1  0.00000000  0.45437204  0.96479456  1
  O  O222  1  0.00000000  0.78770537  0.29812789  1
  O  O223  1  0.00000000  0.78770537  0.63146123  1
  O  O224  1  0.00000000  0.78770537  0.96479456  1
  O  O225  1  0.33333333  0.12103870  0.29812789  1
  O  O226  1  0.33333333  0.12103870  0.63146123  1
  O  O227  1  0.33333333  0.12103870  0.96479456  1
  O  O228  1  0.33333333  0.45437204  0.29812789  1
  O  O229  1  0.33333333  0.45437204  0.63146123  1
  O  O230  1  0.33333333  0.45437204  0.96479456  1
  O  O231  1  0.33333333  0.78770537  0.29812789  1
  O  O232  1  0.33333333  0.78770537  0.63146123  1
  O  O233  1  0.33333333  0.78770537  0.96479456  1
  O  O234  1  0.66666667  0.12103870  0.29812789  1
  O  O235  1  0.66666667  0.12103870  0.63146123  1
  O  O236  1  0.66666667  0.12103870  0.96479456  1
  O  O237  1  0.66666667  0.45437204  0.29812789  1
  O  O238  1  0.66666667  0.45437204  0.63146123  1
  O  O239  1  0.66666667  0.45437204  0.96479456  1
  O  O240  1  0.66666667  0.78770537  0.29812789  1
  O  O241  1  0.66666667  0.78770537  0.63146123  1
  O  O242  1  0.66666667  0.78770537  0.96479456  1
  O  O243  1  0.16666667  0.21229463  0.13146123  1
  O  O244  1  0.16666667  0.21229463  0.46479456  1
  O  O245  1  0.16666667  0.21229463  0.79812789  1
  O  O246  1  0.16666667  0.54562796  0.13146123  1
  O  O247  1  0.16666667  0.54562796  0.46479456  1
  O  O248  1  0.16666667  0.54562796  0.79812789  1
  O  O249  1  0.16666667  0.87896130  0.13146123  1
  O  O250  1  0.16666667  0.87896130  0.46479456  1
  O  O251  1  0.16666667  0.87896130  0.79812789  1
  O  O252  1  0.50000000  0.21229463  0.13146123  1
  O  O253  1  0.50000000  0.21229463  0.46479456  1
  O  O254  1  0.50000000  0.21229463  0.79812789  1
  O  O255  1  0.50000000  0.54562796  0.13146123  1
  O  O256  1  0.50000000  0.54562796  0.46479456  1
  O  O257  1  0.50000000  0.54562796  0.79812789  1
  O  O258  1  0.50000000  0.87896130  0.13146123  1
  O  O259  1  0.50000000  0.87896130  0.46479456  1
  O  O260  1  0.50000000  0.87896130  0.79812789  1
  O  O261  1  0.83333333  0.21229463  0.13146123  1
  O  O262  1  0.83333333  0.21229463  0.46479456  1
  O  O263  1  0.83333333  0.21229463  0.79812789  1
  O  O264  1  0.83333333  0.54562796  0.13146123  1
  O  O265  1  0.83333333  0.54562796  0.46479456  1
  O  O266  1  0.83333333  0.54562796  0.79812789  1
  O  O267  1  0.83333333  0.87896130  0.13146123  1
  O  O268  1  0.83333333  0.87896130  0.46479456  1
  O  O269  1  0.83333333  0.87896130  0.79812789  1
  O  O270  1  0.25560068  0.27513281  0.29790615  1
  O  O271  1  0.25560068  0.27513281  0.63123949  1
  O  O272  1  0.25560068  0.27513281  0.96457282  1
  O  O273  1  0.25560068  0.60846614  0.29790615  1
  O  O274  1  0.25560068  0.60846614  0.63123949  1
  O  O275  1  0.25560068  0.60846614  0.96457282  1
  O  O276  1  0.25560068  0.94179948  0.29790615  1
  O  O277  1  0.25560068  0.94179948  0.63123949  1
  O  O278  1  0.25560068  0.94179948  0.96457282  1
  O  O279  1  0.58893401  0.27513281  0.29790615  1
  O  O280  1  0.58893401  0.27513281  0.63123949  1
  O  O281  1  0.58893401  0.27513281  0.96457282  1
  O  O282  1  0.58893401  0.60846614  0.29790615  1
  O  O283  1  0.58893401  0.60846614  0.63123949  1
  O  O284  1  0.58893401  0.60846614  0.96457282  1
  O  O285  1  0.58893401  0.94179948  0.29790615  1
  O  O286  1  0.58893401  0.94179948  0.63123949  1
  O  O287  1  0.58893401  0.94179948  0.96457282  1
  O  O288  1  0.92226734  0.27513281  0.29790615  1
  O  O289  1  0.92226734  0.27513281  0.63123949  1
  O  O290  1  0.92226734  0.27513281  0.96457282  1
  O  O291  1  0.92226734  0.60846614  0.29790615  1
  O  O292  1  0.92226734  0.60846614  0.63123949  1
  O  O293  1  0.92226734  0.60846614  0.96457282  1
  O  O294  1  0.92226734  0.94179948  0.29790615  1
  O  O295  1  0.92226734  0.94179948  0.63123949  1
  O  O296  1  0.92226734  0.94179948  0.96457282  1
  O  O297  1  0.24439932  0.05820052  0.13123949  1
  O  O298  1  0.24439932  0.05820052  0.46457282  1
  O  O299  1  0.24439932  0.05820052  0.79790615  1
  O  O300  1  0.24439932  0.39153386  0.13123949  1
  O  O301  1  0.24439932  0.39153386  0.46457282  1
  O  O302  1  0.24439932  0.39153386  0.79790615  1
  O  O303  1  0.24439932  0.72486719  0.13123949  1
  O  O304  1  0.24439932  0.72486719  0.46457282  1
  O  O305  1  0.24439932  0.72486719  0.79790615  1
  O  O306  1  0.57773266  0.05820052  0.13123949  1
  O  O307  1  0.57773266  0.05820052  0.46457282  1
  O  O308  1  0.57773266  0.05820052  0.79790615  1
  O  O309  1  0.57773266  0.39153386  0.13123949  1
  O  O310  1  0.57773266  0.39153386  0.46457282  1
  O  O311  1  0.57773266  0.39153386  0.79790615  1
  O  O312  1  0.57773266  0.72486719  0.13123949  1
  O  O313  1  0.57773266  0.72486719  0.46457282  1
  O  O314  1  0.57773266  0.72486719  0.79790615  1
  O  O315  1  0.91106599  0.05820052  0.13123949  1
  O  O316  1  0.91106599  0.05820052  0.46457282  1
  O  O317  1  0.91106599  0.05820052  0.79790615  1
  O  O318  1  0.91106599  0.39153386  0.13123949  1
  O  O319  1  0.91106599  0.39153386  0.46457282  1
  O  O320  1  0.91106599  0.39153386  0.79790615  1
  O  O321  1  0.91106599  0.72486719  0.13123949  1
  O  O322  1  0.91106599  0.72486719  0.46457282  1
  O  O323  1  0.91106599  0.72486719  0.79790615  1
  O  O324  1  0.08893401  0.05820052  0.13123949  1
  O  O325  1  0.08893401  0.05820052  0.46457282  1
  O  O326  1  0.08893401  0.05820052  0.79790615  1
  O  O327  1  0.08893401  0.39153386  0.13123949  1
  O  O328  1  0.08893401  0.39153386  0.46457282  1
  O  O329  1  0.08893401  0.39153386  0.79790615  1
  O  O330  1  0.08893401  0.72486719  0.13123949  1
  O  O331  1  0.08893401  0.72486719  0.46457282  1
  O  O332  1  0.08893401  0.72486719  0.79790615  1
  O  O333  1  0.42226734  0.05820052  0.13123949  1
  O  O334  1  0.42226734  0.05820052  0.46457282  1
  O  O335  1  0.42226734  0.05820052  0.79790615  1
  O  O336  1  0.42226734  0.39153386  0.13123949  1
  O  O337  1  0.42226734  0.39153386  0.46457282  1
  O  O338  1  0.42226734  0.39153386  0.79790615  1
  O  O339  1  0.42226734  0.72486719  0.13123949  1
  O  O340  1  0.42226734  0.72486719  0.46457282  1
  O  O341  1  0.42226734  0.72486719  0.79790615  1
  O  O342  1  0.75560068  0.05820052  0.13123949  1
  O  O343  1  0.75560068  0.05820052  0.46457282  1
  O  O344  1  0.75560068  0.05820052  0.79790615  1
  O  O345  1  0.75560068  0.39153386  0.13123949  1
  O  O346  1  0.75560068  0.39153386  0.46457282  1
  O  O347  1  0.75560068  0.39153386  0.79790615  1
  O  O348  1  0.75560068  0.72486719  0.13123949  1
  O  O349  1  0.75560068  0.72486719  0.46457282  1
  O  O350  1  0.75560068  0.72486719  0.79790615  1
  O  O351  1  0.07773266  0.27513281  0.29790615  1
  O  O352  1  0.07773266  0.27513281  0.63123949  1
  O  O353  1  0.07773266  0.27513281  0.96457282  1
  O  O354  1  0.07773266  0.60846614  0.29790615  1
  O  O355  1  0.07773266  0.60846614  0.63123949  1
  O  O356  1  0.07773266  0.60846614  0.96457282  1
  O  O357  1  0.07773266  0.94179948  0.29790615  1
  O  O358  1  0.07773266  0.94179948  0.63123949  1
  O  O359  1  0.07773266  0.94179948  0.96457282  1
  O  O360  1  0.41106599  0.27513281  0.29790615  1
  O  O361  1  0.41106599  0.27513281  0.63123949  1
  O  O362  1  0.41106599  0.27513281  0.96457282  1
  O  O363  1  0.41106599  0.60846614  0.29790615  1
  O  O364  1  0.41106599  0.60846614  0.63123949  1
  O  O365  1  0.41106599  0.60846614  0.96457282  1
  O  O366  1  0.41106599  0.94179948  0.29790615  1
  O  O367  1  0.41106599  0.94179948  0.63123949  1
  O  O368  1  0.41106599  0.94179948  0.96457282  1
  O  O369  1  0.74439932  0.27513281  0.29790615  1
  O  O370  1  0.74439932  0.27513281  0.63123949  1
  O  O371  1  0.74439932  0.27513281  0.96457282  1
  O  O372  1  0.74439932  0.60846614  0.29790615  1
  O  O373  1  0.74439932  0.60846614  0.63123949  1
  O  O374  1  0.74439932  0.60846614  0.96457282  1
  O  O375  1  0.74439932  0.94179948  0.29790615  1
  O  O376  1  0.74439932  0.94179948  0.63123949  1
  O  O377  1  0.74439932  0.94179948  0.96457282  1
  O  O378  1  0.00000000  0.22305248  0.12160375  1
  O  O379  1  0.00000000  0.22305248  0.45493708  1
  O  O380  1  0.00000000  0.22305248  0.78827042  1
  O  O381  1  0.00000000  0.55638581  0.12160375  1
  O  O382  1  0.00000000  0.55638581  0.45493708  1
  O  O383  1  0.00000000  0.55638581  0.78827042  1
  O  O384  1  0.00000000  0.88971914  0.12160375  1
  O  O385  1  0.00000000  0.88971914  0.45493708  1
  O  O386  1  0.00000000  0.88971914  0.78827042  1
  O  O387  1  0.33333333  0.22305248  0.12160375  1
  O  O388  1  0.33333333  0.22305248  0.45493708  1
  O  O389  1  0.33333333  0.22305248  0.78827042  1
  O  O390  1  0.33333333  0.55638581  0.12160375  1
  O  O391  1  0.33333333  0.55638581  0.45493708  1
  O  O392  1  0.33333333  0.55638581  0.78827042  1
  O  O393  1  0.33333333  0.88971914  0.12160375  1
  O  O394  1  0.33333333  0.88971914  0.45493708  1
  O  O395  1  0.33333333  0.88971914  0.78827042  1
  O  O396  1  0.66666667  0.22305248  0.12160375  1
  O  O397  1  0.66666667  0.22305248  0.45493708  1
  O  O398  1  0.66666667  0.22305248  0.78827042  1
  O  O399  1  0.66666667  0.55638581  0.12160375  1
  O  O400  1  0.66666667  0.55638581  0.45493708  1
  O  O401  1  0.66666667  0.55638581  0.78827042  1
  O  O402  1  0.66666667  0.88971914  0.12160375  1
  O  O403  1  0.66666667  0.88971914  0.45493708  1
  O  O404  1  0.66666667  0.88971914  0.78827042  1
  O  O405  1  0.16666667  0.11028086  0.28827042  1
  O  O406  1  0.16666667  0.11028086  0.62160375  1
  O  O407  1  0.16666667  0.11028086  0.95493708  1
  O  O408  1  0.16666667  0.44361419  0.28827042  1
  O  O409  1  0.16666667  0.44361419  0.62160375  1
  O  O410  1  0.16666667  0.44361419  0.95493708  1
  O  O411  1  0.16666667  0.77694752  0.28827042  1
  O  O412  1  0.16666667  0.77694752  0.62160375  1
  O  O413  1  0.16666667  0.77694752  0.95493708  1
  O  O414  1  0.50000000  0.11028086  0.28827042  1
  O  O415  1  0.50000000  0.11028086  0.62160375  1
  O  O416  1  0.50000000  0.11028086  0.95493708  1
  O  O417  1  0.50000000  0.44361419  0.28827042  1
  O  O418  1  0.50000000  0.44361419  0.62160375  1
  O  O419  1  0.50000000  0.44361419  0.95493708  1
  O  O420  1  0.50000000  0.77694752  0.28827042  1
  O  O421  1  0.50000000  0.77694752  0.62160375  1
  O  O422  1  0.50000000  0.77694752  0.95493708  1
  O  O423  1  0.83333333  0.11028086  0.28827042  1
  O  O424  1  0.83333333  0.11028086  0.62160375  1
  O  O425  1  0.83333333  0.11028086  0.95493708  1
  O  O426  1  0.83333333  0.44361419  0.28827042  1
  O  O427  1  0.83333333  0.44361419  0.62160375  1
  O  O428  1  0.83333333  0.44361419  0.95493708  1
  O  O429  1  0.83333333  0.77694752  0.28827042  1
  O  O430  1  0.83333333  0.77694752  0.62160375  1
  O  O431  1  0.83333333  0.77694752  0.95493708  1
