# generated using pymatgen
data_LiCdBO3
_symmetry_space_group_name_H-M   'P 1'
_cell_length_a   16.67621409
_cell_length_b   16.67621409
_cell_length_c   16.23990418
_cell_angle_alpha   90.00000000
_cell_angle_beta   90.00000000
_cell_angle_gamma   120.00000000
_symmetry_Int_Tables_number   1
_chemical_formula_structural   LiCdBO3
_chemical_formula_sum   'Li60 Cd60 B60 O180'
_cell_volume   3911.19093917
_cell_formula_units_Z   60
loop_
 _symmetry_equiv_pos_site_id
 _symmetry_equiv_pos_as_xyz
  1  'x, y, z'
loop_
 _atom_site_type_symbol
 _atom_site_label
 _atom_site_symmetry_multiplicity
 _atom_site_fract_x
 _atom_site_fract_y
 _atom_site_fract_z
 _atom_site_occupancy
  Li  Li0  1  0.14590737  0.00408491  0.10000000  1
  Li  Li1  1  0.14590737  0.00408491  0.30000000  1
  Li  Li2  1  0.14590737  0.00408491  0.50000000  1
  Li  Li3  1  0.14590737  0.00408491  0.70000000  1
  Li  Li4  1  0.14590737  0.00408491  0.90000000  1
  Li  Li5  1  0.14590737  0.50408491  0.10000000  1
  Li  Li6  1  0.14590737  0.50408491  0.30000000  1
  Li  Li7  1  0.14590737  0.50408491  0.50000000  1
  Li  Li8  1  0.14590737  0.50408491  0.70000000  1
  Li  Li9  1  0.14590737  0.50408491  0.90000000  1
  Li  Li10  1  0.64590737  0.00408491  0.10000000  1
  Li  Li11  1  0.64590737  0.00408491  0.30000000  1
  Li  Li12  1  0.64590737  0.00408491  0.50000000  1
  Li  Li13  1  0.64590737  0.00408491  0.70000000  1
  Li  Li14  1  0.64590737  0.00408491  0.90000000  1
  Li  Li15  1  0.64590737  0.50408491  0.10000000  1
  Li  Li16  1  0.64590737  0.50408491  0.30000000  1
  Li  Li17  1  0.64590737  0.50408491  0.50000000  1
  Li  Li18  1  0.64590737  0.50408491  0.70000000  1
  Li  Li19  1  0.64590737  0.50408491  0.90000000  1
  Li  Li20  1  0.35817754  0.35409263  0.10000000  1
  Li  Li21  1  0.35817754  0.35409263  0.30000000  1
  Li  Li22  1  0.35817754  0.35409263  0.50000000  1
  Li  Li23  1  0.35817754  0.35409263  0.70000000  1
  Li  Li24  1  0.35817754  0.35409263  0.90000000  1
  Li  Li25  1  0.35817754  0.85409263  0.10000000  1
  Li  Li26  1  0.35817754  0.85409263  0.30000000  1
  Li  Li27  1  0.35817754  0.85409263  0.50000000  1
  Li  Li28  1  0.35817754  0.85409263  0.70000000  1
  Li  Li29  1  0.35817754  0.85409263  0.90000000  1
  Li  Li30  1  0.85817754  0.35409263  0.10000000  1
  Li  Li31  1  0.85817754  0.35409263  0.30000000  1
  Li  Li32  1  0.85817754  0.35409263  0.50000000  1
  Li  Li33  1  0.85817754  0.35409263  0.70000000  1
  Li  Li34  1  0.85817754  0.35409263  0.90000000  1
  Li  Li35  1  0.85817754  0.85409263  0.10000000  1
  Li  Li36  1  0.85817754  0.85409263  0.30000000  1
  Li  Li37  1  0.85817754  0.85409263  0.50000000  1
  Li  Li38  1  0.85817754  0.85409263  0.70000000  1
  Li  Li39  1  0.85817754  0.85409263  0.90000000  1
  Li  Li40  1  0.49591509  0.14182246  0.10000000  1
  Li  Li41  1  0.49591509  0.14182246  0.30000000  1
  Li  Li42  1  0.49591509  0.14182246  0.50000000  1
  Li  Li43  1  0.49591509  0.14182246  0.70000000  1
  Li  Li44  1  0.49591509  0.14182246  0.90000000  1
  Li  Li45  1  0.49591509  0.64182246  0.10000000  1
  Li  Li46  1  0.49591509  0.64182246  0.30000000  1
  Li  Li47  1  0.49591509  0.64182246  0.50000000  1
  Li  Li48  1  0.49591509  0.64182246  0.70000000  1
  Li  Li49  1  0.49591509  0.64182246  0.90000000  1
  Li  Li50  1  0.99591509  0.14182246  0.10000000  1
  Li  Li51  1  0.99591509  0.14182246  0.30000000  1
  Li  Li52  1  0.99591509  0.14182246  0.50000000  1
  Li  Li53  1  0.99591509  0.14182246  0.70000000  1
  Li  Li54  1  0.99591509  0.14182246  0.90000000  1
  Li  Li55  1  0.99591509  0.64182246  0.10000000  1
  Li  Li56  1  0.99591509  0.64182246  0.30000000  1
  Li  Li57  1  0.99591509  0.64182246  0.50000000  1
  Li  Li58  1  0.99591509  0.64182246  0.70000000  1
  Li  Li59  1  0.99591509  0.64182246  0.90000000  1
  Cd  Cd60  1  0.31575290  0.49752379  0.00000000  1
  Cd  Cd61  1  0.31575290  0.49752379  0.20000000  1
  Cd  Cd62  1  0.31575290  0.49752379  0.40000000  1
  Cd  Cd63  1  0.31575290  0.49752379  0.60000000  1
  Cd  Cd64  1  0.31575290  0.49752379  0.80000000  1
  Cd  Cd65  1  0.31575290  0.99752379  0.00000000  1
  Cd  Cd66  1  0.31575290  0.99752379  0.20000000  1
  Cd  Cd67  1  0.31575290  0.99752379  0.40000000  1
  Cd  Cd68  1  0.31575290  0.99752379  0.60000000  1
  Cd  Cd69  1  0.31575290  0.99752379  0.80000000  1
  Cd  Cd70  1  0.81575290  0.49752379  0.00000000  1
  Cd  Cd71  1  0.81575290  0.49752379  0.20000000  1
  Cd  Cd72  1  0.81575290  0.49752379  0.40000000  1
  Cd  Cd73  1  0.81575290  0.49752379  0.60000000  1
  Cd  Cd74  1  0.81575290  0.49752379  0.80000000  1
  Cd  Cd75  1  0.81575290  0.99752379  0.00000000  1
  Cd  Cd76  1  0.81575290  0.99752379  0.20000000  1
  Cd  Cd77  1  0.81575290  0.99752379  0.40000000  1
  Cd  Cd78  1  0.81575290  0.99752379  0.60000000  1
  Cd  Cd79  1  0.81575290  0.99752379  0.80000000  1
  Cd  Cd80  1  0.00247621  0.31822911  0.00000000  1
  Cd  Cd81  1  0.00247621  0.31822911  0.20000000  1
  Cd  Cd82  1  0.00247621  0.31822911  0.40000000  1
  Cd  Cd83  1  0.00247621  0.31822911  0.60000000  1
  Cd  Cd84  1  0.00247621  0.31822911  0.80000000  1
  Cd  Cd85  1  0.00247621  0.81822911  0.00000000  1
  Cd  Cd86  1  0.00247621  0.81822911  0.20000000  1
  Cd  Cd87  1  0.00247621  0.81822911  0.40000000  1
  Cd  Cd88  1  0.00247621  0.81822911  0.60000000  1
  Cd  Cd89  1  0.00247621  0.81822911  0.80000000  1
  Cd  Cd90  1  0.50247621  0.31822911  0.00000000  1
  Cd  Cd91  1  0.50247621  0.31822911  0.20000000  1
  Cd  Cd92  1  0.50247621  0.31822911  0.40000000  1
  Cd  Cd93  1  0.50247621  0.31822911  0.60000000  1
  Cd  Cd94  1  0.50247621  0.31822911  0.80000000  1
  Cd  Cd95  1  0.50247621  0.81822911  0.00000000  1
  Cd  Cd96  1  0.50247621  0.81822911  0.20000000  1
  Cd  Cd97  1  0.50247621  0.81822911  0.40000000  1
  Cd  Cd98  1  0.50247621  0.81822911  0.60000000  1
  Cd  Cd99  1  0.50247621  0.81822911  0.80000000  1
  Cd  Cd100  1  0.18177089  0.18424710  0.00000000  1
  Cd  Cd101  1  0.18177089  0.18424710  0.20000000  1
  Cd  Cd102  1  0.18177089  0.18424710  0.40000000  1
  Cd  Cd103  1  0.18177089  0.18424710  0.60000000  1
  Cd  Cd104  1  0.18177089  0.18424710  0.80000000  1
  Cd  Cd105  1  0.18177089  0.68424710  0.00000000  1
  Cd  Cd106  1  0.18177089  0.68424710  0.20000000  1
  Cd  Cd107  1  0.18177089  0.68424710  0.40000000  1
  Cd  Cd108  1  0.18177089  0.68424710  0.60000000  1
  Cd  Cd109  1  0.18177089  0.68424710  0.80000000  1
  Cd  Cd110  1  0.68177089  0.18424710  0.00000000  1
  Cd  Cd111  1  0.68177089  0.18424710  0.20000000  1
  Cd  Cd112  1  0.68177089  0.18424710  0.40000000  1
  Cd  Cd113  1  0.68177089  0.18424710  0.60000000  1
  Cd  Cd114  1  0.68177089  0.18424710  0.80000000  1
  Cd  Cd115  1  0.68177089  0.68424710  0.00000000  1
  Cd  Cd116  1  0.68177089  0.68424710  0.20000000  1
  Cd  Cd117  1  0.68177089  0.68424710  0.40000000  1
  Cd  Cd118  1  0.68177089  0.68424710  0.60000000  1
  Cd  Cd119  1  0.68177089  0.68424710  0.80000000  1
  B  B120  1  0.00000000  0.00000000  0.00000000  1
  B  B121  1  0.00000000  0.00000000  0.20000000  1
  B  B122  1  0.00000000  0.00000000  0.40000000  1
  B  B123  1  0.00000000  0.00000000  0.60000000  1
  B  B124  1  0.00000000  0.00000000  0.80000000  1
  B  B125  1  -0.00000000  0.50000000  0.00000000  1
  B  B126  1  -0.00000000  0.50000000  0.20000000  1
  B  B127  1  -0.00000000  0.50000000  0.40000000  1
  B  B128  1  -0.00000000  0.50000000  0.60000000  1
  B  B129  1  -0.00000000  0.50000000  0.80000000  1
  B  B130  1  0.50000000  0.00000000  0.00000000  1
  B  B131  1  0.50000000  0.00000000  0.20000000  1
  B  B132  1  0.50000000  0.00000000  0.40000000  1
  B  B133  1  0.50000000  0.00000000  0.60000000  1
  B  B134  1  0.50000000  0.00000000  0.80000000  1
  B  B135  1  0.50000000  0.50000000  0.00000000  1
  B  B136  1  0.50000000  0.50000000  0.20000000  1
  B  B137  1  0.50000000  0.50000000  0.40000000  1
  B  B138  1  0.50000000  0.50000000  0.60000000  1
  B  B139  1  0.50000000  0.50000000  0.80000000  1
  B  B140  1  0.33333333  0.16666667  0.10000000  1
  B  B141  1  0.33333333  0.16666667  0.30000000  1
  B  B142  1  0.33333333  0.16666667  0.50000000  1
  B  B143  1  0.33333333  0.16666667  0.70000000  1
  B  B144  1  0.33333333  0.16666667  0.90000000  1
  B  B145  1  0.33333333  0.66666667  0.10000000  1
  B  B146  1  0.33333333  0.66666667  0.30000000  1
  B  B147  1  0.33333333  0.66666667  0.50000000  1
  B  B148  1  0.33333333  0.66666667  0.70000000  1
  B  B149  1  0.33333333  0.66666667  0.90000000  1
  B  B150  1  0.83333333  0.16666667  0.10000000  1
  B  B151  1  0.83333333  0.16666667  0.30000000  1
  B  B152  1  0.83333333  0.16666667  0.50000000  1
  B  B153  1  0.83333333  0.16666667  0.70000000  1
  B  B154  1  0.83333333  0.16666667  0.90000000  1
  B  B155  1  0.83333333  0.66666667  0.10000000  1
  B  B156  1  0.83333333  0.66666667  0.30000000  1
  B  B157  1  0.83333333  0.66666667  0.50000000  1
  B  B158  1  0.83333333  0.66666667  0.70000000  1
  B  B159  1  0.83333333  0.66666667  0.90000000  1
  B  B160  1  0.16666667  0.33333333  0.10000000  1
  B  B161  1  0.16666667  0.33333333  0.30000000  1
  B  B162  1  0.16666667  0.33333333  0.50000000  1
  B  B163  1  0.16666667  0.33333333  0.70000000  1
  B  B164  1  0.16666667  0.33333333  0.90000000  1
  B  B165  1  0.16666667  0.83333333  0.10000000  1
  B  B166  1  0.16666667  0.83333333  0.30000000  1
  B  B167  1  0.16666667  0.83333333  0.50000000  1
  B  B168  1  0.16666667  0.83333333  0.70000000  1
  B  B169  1  0.16666667  0.83333333  0.90000000  1
  B  B170  1  0.66666667  0.33333333  0.10000000  1
  B  B171  1  0.66666667  0.33333333  0.30000000  1
  B  B172  1  0.66666667  0.33333333  0.50000000  1
  B  B173  1  0.66666667  0.33333333  0.70000000  1
  B  B174  1  0.66666667  0.33333333  0.90000000  1
  B  B175  1  0.66666667  0.83333333  0.10000000  1
  B  B176  1  0.66666667  0.83333333  0.30000000  1
  B  B177  1  0.66666667  0.83333333  0.50000000  1
  B  B178  1  0.66666667  0.83333333  0.70000000  1
  B  B179  1  0.66666667  0.83333333  0.90000000  1
  O  O180  1  0.09456772  0.03166362  0.00000000  1
  O  O181  1  0.09456772  0.03166362  0.20000000  1
  O  O182  1  0.09456772  0.03166362  0.40000000  1
  O  O183  1  0.09456772  0.03166362  0.60000000  1
  O  O184  1  0.09456772  0.03166362  0.80000000  1
  O  O185  1  0.09456772  0.53166362  0.00000000  1
  O  O186  1  0.09456772  0.53166362  0.20000000  1
  O  O187  1  0.09456772  0.53166362  0.40000000  1
  O  O188  1  0.09456772  0.53166362  0.60000000  1
  O  O189  1  0.09456772  0.53166362  0.80000000  1
  O  O190  1  0.59456772  0.03166362  0.00000000  1
  O  O191  1  0.59456772  0.03166362  0.20000000  1
  O  O192  1  0.59456772  0.03166362  0.40000000  1
  O  O193  1  0.59456772  0.03166362  0.60000000  1
  O  O194  1  0.59456772  0.03166362  0.80000000  1
  O  O195  1  0.59456772  0.53166362  0.00000000  1
  O  O196  1  0.59456772  0.53166362  0.20000000  1
  O  O197  1  0.59456772  0.53166362  0.40000000  1
  O  O198  1  0.59456772  0.53166362  0.60000000  1
  O  O199  1  0.59456772  0.53166362  0.80000000  1
  O  O200  1  0.46833638  0.06290411  0.00000000  1
  O  O201  1  0.46833638  0.06290411  0.20000000  1
  O  O202  1  0.46833638  0.06290411  0.40000000  1
  O  O203  1  0.46833638  0.06290411  0.60000000  1
  O  O204  1  0.46833638  0.06290411  0.80000000  1
  O  O205  1  0.46833638  0.56290411  0.00000000  1
  O  O206  1  0.46833638  0.56290411  0.20000000  1
  O  O207  1  0.46833638  0.56290411  0.40000000  1
  O  O208  1  0.46833638  0.56290411  0.60000000  1
  O  O209  1  0.46833638  0.56290411  0.80000000  1
  O  O210  1  0.96833638  0.06290411  0.00000000  1
  O  O211  1  0.96833638  0.06290411  0.20000000  1
  O  O212  1  0.96833638  0.06290411  0.40000000  1
  O  O213  1  0.96833638  0.06290411  0.60000000  1
  O  O214  1  0.96833638  0.06290411  0.80000000  1
  O  O215  1  0.96833638  0.56290411  0.00000000  1
  O  O216  1  0.96833638  0.56290411  0.20000000  1
  O  O217  1  0.96833638  0.56290411  0.40000000  1
  O  O218  1  0.96833638  0.56290411  0.60000000  1
  O  O219  1  0.96833638  0.56290411  0.80000000  1
  O  O220  1  0.43709589  0.40543228  0.00000000  1
  O  O221  1  0.43709589  0.40543228  0.20000000  1
  O  O222  1  0.43709589  0.40543228  0.40000000  1
  O  O223  1  0.43709589  0.40543228  0.60000000  1
  O  O224  1  0.43709589  0.40543228  0.80000000  1
  O  O225  1  0.43709589  0.90543228  0.00000000  1
  O  O226  1  0.43709589  0.90543228  0.20000000  1
  O  O227  1  0.43709589  0.90543228  0.40000000  1
  O  O228  1  0.43709589  0.90543228  0.60000000  1
  O  O229  1  0.43709589  0.90543228  0.80000000  1
  O  O230  1  0.93709589  0.40543228  0.00000000  1
  O  O231  1  0.93709589  0.40543228  0.20000000  1
  O  O232  1  0.93709589  0.40543228  0.40000000  1
  O  O233  1  0.93709589  0.40543228  0.60000000  1
  O  O234  1  0.93709589  0.40543228  0.80000000  1
  O  O235  1  0.93709589  0.90543228  0.00000000  1
  O  O236  1  0.93709589  0.90543228  0.20000000  1
  O  O237  1  0.93709589  0.90543228  0.40000000  1
  O  O238  1  0.93709589  0.90543228  0.60000000  1
  O  O239  1  0.93709589  0.90543228  0.80000000  1
  O  O240  1  0.12399250  0.23739859  0.10000000  1
  O  O241  1  0.12399250  0.23739859  0.30000000  1
  O  O242  1  0.12399250  0.23739859  0.50000000  1
  O  O243  1  0.12399250  0.23739859  0.70000000  1
  O  O244  1  0.12399250  0.23739859  0.90000000  1
  O  O245  1  0.12399250  0.73739859  0.10000000  1
  O  O246  1  0.12399250  0.73739859  0.30000000  1
  O  O247  1  0.12399250  0.73739859  0.50000000  1
  O  O248  1  0.12399250  0.73739859  0.70000000  1
  O  O249  1  0.12399250  0.73739859  0.90000000  1
  O  O250  1  0.62399250  0.23739859  0.10000000  1
  O  O251  1  0.62399250  0.23739859  0.30000000  1
  O  O252  1  0.62399250  0.23739859  0.50000000  1
  O  O253  1  0.62399250  0.23739859  0.70000000  1
  O  O254  1  0.62399250  0.23739859  0.90000000  1
  O  O255  1  0.62399250  0.73739859  0.10000000  1
  O  O256  1  0.62399250  0.73739859  0.30000000  1
  O  O257  1  0.62399250  0.73739859  0.50000000  1
  O  O258  1  0.62399250  0.73739859  0.70000000  1
  O  O259  1  0.62399250  0.73739859  0.90000000  1
  O  O260  1  0.11340610  0.37600750  0.10000000  1
  O  O261  1  0.11340610  0.37600750  0.30000000  1
  O  O262  1  0.11340610  0.37600750  0.50000000  1
  O  O263  1  0.11340610  0.37600750  0.70000000  1
  O  O264  1  0.11340610  0.37600750  0.90000000  1
  O  O265  1  0.11340610  0.87600750  0.10000000  1
  O  O266  1  0.11340610  0.87600750  0.30000000  1
  O  O267  1  0.11340610  0.87600750  0.50000000  1
  O  O268  1  0.11340610  0.87600750  0.70000000  1
  O  O269  1  0.11340610  0.87600750  0.90000000  1
  O  O270  1  0.61340610  0.37600750  0.10000000  1
  O  O271  1  0.61340610  0.37600750  0.30000000  1
  O  O272  1  0.61340610  0.37600750  0.50000000  1
  O  O273  1  0.61340610  0.37600750  0.70000000  1
  O  O274  1  0.61340610  0.37600750  0.90000000  1
  O  O275  1  0.61340610  0.87600750  0.10000000  1
  O  O276  1  0.61340610  0.87600750  0.30000000  1
  O  O277  1  0.61340610  0.87600750  0.50000000  1
  O  O278  1  0.61340610  0.87600750  0.70000000  1
  O  O279  1  0.61340610  0.87600750  0.90000000  1
  O  O280  1  0.26260141  0.38659390  0.10000000  1
  O  O281  1  0.26260141  0.38659390  0.30000000  1
  O  O282  1  0.26260141  0.38659390  0.50000000  1
  O  O283  1  0.26260141  0.38659390  0.70000000  1
  O  O284  1  0.26260141  0.38659390  0.90000000  1
  O  O285  1  0.26260141  0.88659390  0.10000000  1
  O  O286  1  0.26260141  0.88659390  0.30000000  1
  O  O287  1  0.26260141  0.88659390  0.50000000  1
  O  O288  1  0.26260141  0.88659390  0.70000000  1
  O  O289  1  0.26260141  0.88659390  0.90000000  1
  O  O290  1  0.76260141  0.38659390  0.10000000  1
  O  O291  1  0.76260141  0.38659390  0.30000000  1
  O  O292  1  0.76260141  0.38659390  0.50000000  1
  O  O293  1  0.76260141  0.38659390  0.70000000  1
  O  O294  1  0.76260141  0.38659390  0.90000000  1
  O  O295  1  0.76260141  0.88659390  0.10000000  1
  O  O296  1  0.76260141  0.88659390  0.30000000  1
  O  O297  1  0.76260141  0.88659390  0.50000000  1
  O  O298  1  0.76260141  0.88659390  0.70000000  1
  O  O299  1  0.76260141  0.88659390  0.90000000  1
  O  O300  1  0.29080367  0.21987818  0.10000000  1
  O  O301  1  0.29080367  0.21987818  0.30000000  1
  O  O302  1  0.29080367  0.21987818  0.50000000  1
  O  O303  1  0.29080367  0.21987818  0.70000000  1
  O  O304  1  0.29080367  0.21987818  0.90000000  1
  O  O305  1  0.29080367  0.71987818  0.10000000  1
  O  O306  1  0.29080367  0.71987818  0.30000000  1
  O  O307  1  0.29080367  0.71987818  0.50000000  1
  O  O308  1  0.29080367  0.71987818  0.70000000  1
  O  O309  1  0.29080367  0.71987818  0.90000000  1
  O  O310  1  0.79080367  0.21987818  0.10000000  1
  O  O311  1  0.79080367  0.21987818  0.30000000  1
  O  O312  1  0.79080367  0.21987818  0.50000000  1
  O  O313  1  0.79080367  0.21987818  0.70000000  1
  O  O314  1  0.79080367  0.21987818  0.90000000  1
  O  O315  1  0.79080367  0.71987818  0.10000000  1
  O  O316  1  0.79080367  0.71987818  0.30000000  1
  O  O317  1  0.79080367  0.71987818  0.50000000  1
  O  O318  1  0.79080367  0.71987818  0.70000000  1
  O  O319  1  0.79080367  0.71987818  0.90000000  1
  O  O320  1  0.42907451  0.20919633  0.10000000  1
  O  O321  1  0.42907451  0.20919633  0.30000000  1
  O  O322  1  0.42907451  0.20919633  0.50000000  1
  O  O323  1  0.42907451  0.20919633  0.70000000  1
  O  O324  1  0.42907451  0.20919633  0.90000000  1
  O  O325  1  0.42907451  0.70919633  0.10000000  1
  O  O326  1  0.42907451  0.70919633  0.30000000  1
  O  O327  1  0.42907451  0.70919633  0.50000000  1
  O  O328  1  0.42907451  0.70919633  0.70000000  1
  O  O329  1  0.42907451  0.70919633  0.90000000  1
  O  O330  1  0.92907451  0.20919633  0.10000000  1
  O  O331  1  0.92907451  0.20919633  0.30000000  1
  O  O332  1  0.92907451  0.20919633  0.50000000  1
  O  O333  1  0.92907451  0.20919633  0.70000000  1
  O  O334  1  0.92907451  0.20919633  0.90000000  1
  O  O335  1  0.92907451  0.70919633  0.10000000  1
  O  O336  1  0.92907451  0.70919633  0.30000000  1
  O  O337  1  0.92907451  0.70919633  0.50000000  1
  O  O338  1  0.92907451  0.70919633  0.70000000  1
  O  O339  1  0.92907451  0.70919633  0.90000000  1
  O  O340  1  0.28012182  0.07092549  0.10000000  1
  O  O341  1  0.28012182  0.07092549  0.30000000  1
  O  O342  1  0.28012182  0.07092549  0.50000000  1
  O  O343  1  0.28012182  0.07092549  0.70000000  1
  O  O344  1  0.28012182  0.07092549  0.90000000  1
  O  O345  1  0.28012182  0.57092549  0.10000000  1
  O  O346  1  0.28012182  0.57092549  0.30000000  1
  O  O347  1  0.28012182  0.57092549  0.50000000  1
  O  O348  1  0.28012182  0.57092549  0.70000000  1
  O  O349  1  0.28012182  0.57092549  0.90000000  1
  O  O350  1  0.78012182  0.07092549  0.10000000  1
  O  O351  1  0.78012182  0.07092549  0.30000000  1
  O  O352  1  0.78012182  0.07092549  0.50000000  1
  O  O353  1  0.78012182  0.07092549  0.70000000  1
  O  O354  1  0.78012182  0.07092549  0.90000000  1
  O  O355  1  0.78012182  0.57092549  0.10000000  1
  O  O356  1  0.78012182  0.57092549  0.30000000  1
  O  O357  1  0.78012182  0.57092549  0.50000000  1
  O  O358  1  0.78012182  0.57092549  0.70000000  1
  O  O359  1  0.78012182  0.57092549  0.90000000  1
