# generated using pymatgen
data_Ba2LaSbO6
_symmetry_space_group_name_H-M   'P 1'
_cell_length_a   12.24889380
_cell_length_b   12.24889380
_cell_length_c   14.78841393
_cell_angle_alpha   90.00000000
_cell_angle_beta   90.00000000
_cell_angle_gamma   120.00000000
_symmetry_Int_Tables_number   1
_chemical_formula_structural   Ba2LaSbO6
_chemical_formula_sum   'Ba24 La12 Sb12 O72'
_cell_volume   1921.52468481
_cell_formula_units_Z   12
loop_
 _symmetry_equiv_pos_site_id
 _symmetry_equiv_pos_as_xyz
  1  'x, y, z'
loop_
 _atom_site_type_symbol
 _atom_site_label
 _atom_site_symmetry_multiplicity
 _atom_site_fract_x
 _atom_site_fract_y
 _atom_site_fract_z
 _atom_site_occupancy
  Ba  Ba0  1  -0.00000000  -0.00000000  0.74808070  1
  Ba  Ba1  1  -0.00000000  0.50000000  0.74808070  1
  Ba  Ba2  1  0.50000000  -0.00000000  0.74808070  1
  Ba  Ba3  1  0.50000000  0.50000000  0.74808070  1
  Ba  Ba4  1  0.33333333  0.16666667  1.08141403  1
  Ba  Ba5  1  0.33333333  0.66666667  1.08141403  1
  Ba  Ba6  1  0.83333333  0.16666667  1.08141403  1
  Ba  Ba7  1  0.83333333  0.66666667  1.08141403  1
  Ba  Ba8  1  0.16666667  0.33333333  1.41474737  1
  Ba  Ba9  1  0.16666667  0.83333333  1.41474737  1
  Ba  Ba10  1  0.66666667  0.33333333  1.41474737  1
  Ba  Ba11  1  0.66666667  0.83333333  1.41474737  1
  Ba  Ba12  1  -0.00000000  0.00000000  0.25191930  1
  Ba  Ba13  1  -0.00000000  0.50000000  0.25191930  1
  Ba  Ba14  1  0.50000000  0.00000000  0.25191930  1
  Ba  Ba15  1  0.50000000  0.50000000  0.25191930  1
  Ba  Ba16  1  0.33333333  0.16666667  0.58525263  1
  Ba  Ba17  1  0.33333333  0.66666667  0.58525263  1
  Ba  Ba18  1  0.83333333  0.16666667  0.58525263  1
  Ba  Ba19  1  0.83333333  0.66666667  0.58525263  1
  Ba  Ba20  1  0.16666667  0.33333333  0.91858597  1
  Ba  Ba21  1  0.16666667  0.83333333  0.91858597  1
  Ba  Ba22  1  0.66666667  0.33333333  0.91858597  1
  Ba  Ba23  1  0.66666667  0.83333333  0.91858597  1
  La  La24  1  -0.00000000  -0.00000000  -0.00000000  1
  La  La25  1  0.00000000  0.50000000  -0.00000000  1
  La  La26  1  0.50000000  -0.00000000  -0.00000000  1
  La  La27  1  0.50000000  0.50000000  -0.00000000  1
  La  La28  1  0.33333333  0.16666667  0.33333333  1
  La  La29  1  0.33333333  0.66666667  0.33333333  1
  La  La30  1  0.83333333  0.16666667  0.33333333  1
  La  La31  1  0.83333333  0.66666667  0.33333333  1
  La  La32  1  0.16666667  0.33333333  0.66666667  1
  La  La33  1  0.16666667  0.83333333  0.66666667  1
  La  La34  1  0.66666667  0.33333333  0.66666667  1
  La  La35  1  0.66666667  0.83333333  0.66666667  1
  Sb  Sb36  1  -0.00000000  -0.00000000  0.50000000  1
  Sb  Sb37  1  -0.00000000  0.50000000  0.50000000  1
  Sb  Sb38  1  0.50000000  -0.00000000  0.50000000  1
  Sb  Sb39  1  0.50000000  0.50000000  0.50000000  1
  Sb  Sb40  1  0.33333333  0.16666667  0.83333333  1
  Sb  Sb41  1  0.33333333  0.66666667  0.83333333  1
  Sb  Sb42  1  0.83333333  0.16666667  0.83333333  1
  Sb  Sb43  1  0.83333333  0.66666667  0.83333333  1
  Sb  Sb44  1  0.16666667  0.33333333  1.16666667  1
  Sb  Sb45  1  0.16666667  0.83333333  1.16666667  1
  Sb  Sb46  1  0.66666667  0.33333333  1.16666667  1
  Sb  Sb47  1  0.66666667  0.83333333  1.16666667  1
  O  O48  1  0.15231954  0.10057293  0.42189322  1
  O  O49  1  0.15231954  0.60057293  0.42189322  1
  O  O50  1  0.65231954  0.10057293  0.42189322  1
  O  O51  1  0.65231954  0.60057293  0.42189322  1
  O  O52  1  0.48565287  0.26723960  0.75522656  1
  O  O53  1  0.48565287  0.76723960  0.75522656  1
  O  O54  1  0.98565287  0.26723960  0.75522656  1
  O  O55  1  0.98565287  0.76723960  0.75522656  1
  O  O56  1  0.31898620  0.43390626  1.08855989  1
  O  O57  1  0.31898620  0.93390626  1.08855989  1
  O  O58  1  0.81898620  0.43390626  1.08855989  1
  O  O59  1  0.81898620  0.93390626  1.08855989  1
  O  O60  1  0.10057293  -0.05174661  0.57810678  1
  O  O61  1  0.10057293  0.44825339  0.57810678  1
  O  O62  1  0.60057293  -0.05174661  0.57810678  1
  O  O63  1  0.60057293  0.44825339  0.57810678  1
  O  O64  1  0.43390626  0.11492006  0.91144011  1
  O  O65  1  0.43390626  0.61492006  0.91144011  1
  O  O66  1  0.93390626  0.11492006  0.91144011  1
  O  O67  1  0.93390626  0.61492006  0.91144011  1
  O  O68  1  0.26723960  0.28158673  1.24477344  1
  O  O69  1  0.26723960  0.78158673  1.24477344  1
  O  O70  1  0.76723960  0.28158673  1.24477344  1
  O  O71  1  0.76723960  0.78158673  1.24477344  1
  O  O72  1  -0.05174661  -0.15231954  0.42189322  1
  O  O73  1  -0.05174661  0.34768046  0.42189322  1
  O  O74  1  0.44825339  -0.15231954  0.42189322  1
  O  O75  1  0.44825339  0.34768046  0.42189322  1
  O  O76  1  0.28158673  0.01434713  0.75522656  1
  O  O77  1  0.28158673  0.51434713  0.75522656  1
  O  O78  1  0.78158673  0.01434713  0.75522656  1
  O  O79  1  0.78158673  0.51434713  0.75522656  1
  O  O80  1  0.11492006  0.18101380  1.08855989  1
  O  O81  1  0.11492006  0.68101380  1.08855989  1
  O  O82  1  0.61492006  0.18101380  1.08855989  1
  O  O83  1  0.61492006  0.68101380  1.08855989  1
  O  O84  1  0.05174661  0.15231954  0.57810678  1
  O  O85  1  0.05174661  0.65231954  0.57810678  1
  O  O86  1  0.55174661  0.15231954  0.57810678  1
  O  O87  1  0.55174661  0.65231954  0.57810678  1
  O  O88  1  0.38507994  0.31898620  0.91144011  1
  O  O89  1  0.38507994  0.81898620  0.91144011  1
  O  O90  1  0.88507994  0.31898620  0.91144011  1
  O  O91  1  0.88507994  0.81898620  0.91144011  1
  O  O92  1  0.21841327  0.48565287  1.24477344  1
  O  O93  1  0.21841327  0.98565287  1.24477344  1
  O  O94  1  0.71841327  0.48565287  1.24477344  1
  O  O95  1  0.71841327  0.98565287  1.24477344  1
  O  O96  1  -0.10057293  0.05174661  0.42189322  1
  O  O97  1  -0.10057293  0.55174661  0.42189322  1
  O  O98  1  0.39942707  0.05174661  0.42189322  1
  O  O99  1  0.39942707  0.55174661  0.42189322  1
  O  O100  1  0.23276040  0.21841327  0.75522656  1
  O  O101  1  0.23276040  0.71841327  0.75522656  1
  O  O102  1  0.73276040  0.21841327  0.75522656  1
  O  O103  1  0.73276040  0.71841327  0.75522656  1
  O  O104  1  0.06609374  0.38507994  1.08855989  1
  O  O105  1  0.06609374  0.88507994  1.08855989  1
  O  O106  1  0.56609374  0.38507994  1.08855989  1
  O  O107  1  0.56609374  0.88507994  1.08855989  1
  O  O108  1  -0.15231954  -0.10057293  0.57810678  1
  O  O109  1  -0.15231954  0.39942707  0.57810678  1
  O  O110  1  0.34768046  -0.10057293  0.57810678  1
  O  O111  1  0.34768046  0.39942707  0.57810678  1
  O  O112  1  0.18101380  0.06609374  0.91144011  1
  O  O113  1  0.18101380  0.56609374  0.91144011  1
  O  O114  1  0.68101380  0.06609374  0.91144011  1
  O  O115  1  0.68101380  0.56609374  0.91144011  1
  O  O116  1  0.01434713  0.23276040  1.24477344  1
  O  O117  1  0.01434713  0.73276040  1.24477344  1
  O  O118  1  0.51434713  0.23276040  1.24477344  1
  O  O119  1  0.51434713  0.73276040  1.24477344  1
