# generated using pymatgen
data_Na2Sb4O7
_symmetry_space_group_name_H-M   'P 1'
_cell_length_a   22.23772587
_cell_length_b   16.51211355
_cell_length_c   16.99875186
_cell_angle_alpha   90.00000000
_cell_angle_beta   116.32657871
_cell_angle_gamma   90.00000000
_symmetry_Int_Tables_number   1
_chemical_formula_structural   Na2Sb4O7
_chemical_formula_sum   'Na48 Sb96 O168'
_cell_volume   5594.40838425
_cell_formula_units_Z   24
loop_
 _symmetry_equiv_pos_site_id
 _symmetry_equiv_pos_as_xyz
  1  'x, y, z'
loop_
 _atom_site_type_symbol
 _atom_site_label
 _atom_site_symmetry_multiplicity
 _atom_site_fract_x
 _atom_site_fract_y
 _atom_site_fract_z
 _atom_site_occupancy
  Na  Na0  1  0.21038207  0.09293590  0.14307735  1
  Na  Na1  1  0.21038207  0.09293590  0.47641068  1
  Na  Na2  1  0.21038207  0.09293590  0.80974402  1
  Na  Na3  1  0.71038207  0.09293590  0.14307735  1
  Na  Na4  1  0.71038207  0.09293590  0.47641068  1
  Na  Na5  1  0.71038207  0.09293590  0.80974402  1
  Na  Na6  1  0.46038207  0.59293590  0.14307735  1
  Na  Na7  1  0.46038207  0.59293590  0.47641068  1
  Na  Na8  1  0.46038207  0.59293590  0.80974402  1
  Na  Na9  1  0.96038207  0.59293590  0.14307735  1
  Na  Na10  1  0.96038207  0.59293590  0.47641068  1
  Na  Na11  1  0.96038207  0.59293590  0.80974402  1
  Na  Na12  1  0.28961793  0.09293590  0.02358932  1
  Na  Na13  1  0.28961793  0.09293590  0.35692265  1
  Na  Na14  1  0.28961793  0.09293590  0.69025598  1
  Na  Na15  1  0.78961793  0.09293590  0.02358932  1
  Na  Na16  1  0.78961793  0.09293590  0.35692265  1
  Na  Na17  1  0.78961793  0.09293590  0.69025598  1
  Na  Na18  1  0.53961793  0.59293590  0.02358932  1
  Na  Na19  1  0.53961793  0.59293590  0.35692265  1
  Na  Na20  1  0.53961793  0.59293590  0.69025598  1
  Na  Na21  1  1.03961793  0.59293590  0.02358932  1
  Na  Na22  1  1.03961793  0.59293590  0.35692265  1
  Na  Na23  1  1.03961793  0.59293590  0.69025598  1
  Na  Na24  1  0.28961793  -0.09293590  0.19025598  1
  Na  Na25  1  0.28961793  -0.09293590  0.52358932  1
  Na  Na26  1  0.28961793  -0.09293590  0.85692265  1
  Na  Na27  1  0.78961793  -0.09293590  0.19025598  1
  Na  Na28  1  0.78961793  -0.09293590  0.52358932  1
  Na  Na29  1  0.78961793  -0.09293590  0.85692265  1
  Na  Na30  1  0.53961793  0.40706410  0.19025598  1
  Na  Na31  1  0.53961793  0.40706410  0.52358932  1
  Na  Na32  1  0.53961793  0.40706410  0.85692265  1
  Na  Na33  1  1.03961793  0.40706410  0.19025598  1
  Na  Na34  1  1.03961793  0.40706410  0.52358932  1
  Na  Na35  1  1.03961793  0.40706410  0.85692265  1
  Na  Na36  1  0.21038207  -0.09293590  0.30974402  1
  Na  Na37  1  0.21038207  -0.09293590  0.64307735  1
  Na  Na38  1  0.21038207  -0.09293590  0.97641068  1
  Na  Na39  1  0.71038207  -0.09293590  0.30974402  1
  Na  Na40  1  0.71038207  -0.09293590  0.64307735  1
  Na  Na41  1  0.71038207  -0.09293590  0.97641068  1
  Na  Na42  1  0.46038207  0.40706410  0.30974402  1
  Na  Na43  1  0.46038207  0.40706410  0.64307735  1
  Na  Na44  1  0.46038207  0.40706410  0.97641068  1
  Na  Na45  1  0.96038207  0.40706410  0.30974402  1
  Na  Na46  1  0.96038207  0.40706410  0.64307735  1
  Na  Na47  1  0.96038207  0.40706410  0.97641068  1
  Sb  Sb48  1  0.32131797  -0.24749729  0.06017230  1
  Sb  Sb49  1  0.32131797  -0.24749729  0.39350564  1
  Sb  Sb50  1  0.32131797  -0.24749729  0.72683897  1
  Sb  Sb51  1  0.82131797  -0.24749729  0.06017230  1
  Sb  Sb52  1  0.82131797  -0.24749729  0.39350564  1
  Sb  Sb53  1  0.82131797  -0.24749729  0.72683897  1
  Sb  Sb54  1  0.57131797  0.25250271  0.06017230  1
  Sb  Sb55  1  0.57131797  0.25250271  0.39350564  1
  Sb  Sb56  1  0.57131797  0.25250271  0.72683897  1
  Sb  Sb57  1  1.07131797  0.25250271  0.06017230  1
  Sb  Sb58  1  1.07131797  0.25250271  0.39350564  1
  Sb  Sb59  1  1.07131797  0.25250271  0.72683897  1
  Sb  Sb60  1  0.32131797  0.24749729  0.22683897  1
  Sb  Sb61  1  0.32131797  0.24749729  0.56017230  1
  Sb  Sb62  1  0.32131797  0.24749729  0.89350564  1
  Sb  Sb63  1  0.82131797  0.24749729  0.22683897  1
  Sb  Sb64  1  0.82131797  0.24749729  0.56017230  1
  Sb  Sb65  1  0.82131797  0.24749729  0.89350564  1
  Sb  Sb66  1  0.57131797  0.74749729  0.22683897  1
  Sb  Sb67  1  0.57131797  0.74749729  0.56017230  1
  Sb  Sb68  1  0.57131797  0.74749729  0.89350564  1
  Sb  Sb69  1  1.07131797  0.74749729  0.22683897  1
  Sb  Sb70  1  1.07131797  0.74749729  0.56017230  1
  Sb  Sb71  1  1.07131797  0.74749729  0.89350564  1
  Sb  Sb72  1  0.17868203  0.24749729  0.27316103  1
  Sb  Sb73  1  0.17868203  0.24749729  0.60649436  1
  Sb  Sb74  1  0.17868203  0.24749729  0.93982770  1
  Sb  Sb75  1  0.67868203  0.24749729  0.27316103  1
  Sb  Sb76  1  0.67868203  0.24749729  0.60649436  1
  Sb  Sb77  1  0.67868203  0.24749729  0.93982770  1
  Sb  Sb78  1  0.42868203  0.74749729  0.27316103  1
  Sb  Sb79  1  0.42868203  0.74749729  0.60649436  1
  Sb  Sb80  1  0.42868203  0.74749729  0.93982770  1
  Sb  Sb81  1  0.92868203  0.74749729  0.27316103  1
  Sb  Sb82  1  0.92868203  0.74749729  0.60649436  1
  Sb  Sb83  1  0.92868203  0.74749729  0.93982770  1
  Sb  Sb84  1  0.17868203  -0.24749729  0.10649436  1
  Sb  Sb85  1  0.17868203  -0.24749729  0.43982770  1
  Sb  Sb86  1  0.17868203  -0.24749729  0.77316103  1
  Sb  Sb87  1  0.67868203  -0.24749729  0.10649436  1
  Sb  Sb88  1  0.67868203  -0.24749729  0.43982770  1
  Sb  Sb89  1  0.67868203  -0.24749729  0.77316103  1
  Sb  Sb90  1  0.42868203  0.25250271  0.10649436  1
  Sb  Sb91  1  0.42868203  0.25250271  0.43982770  1
  Sb  Sb92  1  0.42868203  0.25250271  0.77316103  1
  Sb  Sb93  1  0.92868203  0.25250271  0.10649436  1
  Sb  Sb94  1  0.92868203  0.25250271  0.43982770  1
  Sb  Sb95  1  0.92868203  0.25250271  0.77316103  1
  Sb  Sb96  1  0.10584120  0.06910744  0.26084042  1
  Sb  Sb97  1  0.10584120  0.06910744  0.59417375  1
  Sb  Sb98  1  0.10584120  0.06910744  0.92750709  1
  Sb  Sb99  1  0.60584120  0.06910744  0.26084042  1
  Sb  Sb100  1  0.60584120  0.06910744  0.59417375  1
  Sb  Sb101  1  0.60584120  0.06910744  0.92750709  1
  Sb  Sb102  1  0.35584120  0.56910744  0.26084042  1
  Sb  Sb103  1  0.35584120  0.56910744  0.59417375  1
  Sb  Sb104  1  0.35584120  0.56910744  0.92750709  1
  Sb  Sb105  1  0.85584120  0.56910744  0.26084042  1
  Sb  Sb106  1  0.85584120  0.56910744  0.59417375  1
  Sb  Sb107  1  0.85584120  0.56910744  0.92750709  1
  Sb  Sb108  1  0.39415880  0.06910744  0.23915958  1
  Sb  Sb109  1  0.39415880  0.06910744  0.57249291  1
  Sb  Sb110  1  0.39415880  0.06910744  0.90582625  1
  Sb  Sb111  1  0.89415880  0.06910744  0.23915958  1
  Sb  Sb112  1  0.89415880  0.06910744  0.57249291  1
  Sb  Sb113  1  0.89415880  0.06910744  0.90582625  1
  Sb  Sb114  1  0.64415880  0.56910744  0.23915958  1
  Sb  Sb115  1  0.64415880  0.56910744  0.57249291  1
  Sb  Sb116  1  0.64415880  0.56910744  0.90582625  1
  Sb  Sb117  1  1.14415880  0.56910744  0.23915958  1
  Sb  Sb118  1  1.14415880  0.56910744  0.57249291  1
  Sb  Sb119  1  1.14415880  0.56910744  0.90582625  1
  Sb  Sb120  1  0.39415880  -0.06910744  0.07249291  1
  Sb  Sb121  1  0.39415880  -0.06910744  0.40582625  1
  Sb  Sb122  1  0.39415880  -0.06910744  0.73915958  1
  Sb  Sb123  1  0.89415880  -0.06910744  0.07249291  1
  Sb  Sb124  1  0.89415880  -0.06910744  0.40582625  1
  Sb  Sb125  1  0.89415880  -0.06910744  0.73915958  1
  Sb  Sb126  1  0.64415880  0.43089256  0.07249291  1
  Sb  Sb127  1  0.64415880  0.43089256  0.40582625  1
  Sb  Sb128  1  0.64415880  0.43089256  0.73915958  1
  Sb  Sb129  1  1.14415880  0.43089256  0.07249291  1
  Sb  Sb130  1  1.14415880  0.43089256  0.40582625  1
  Sb  Sb131  1  1.14415880  0.43089256  0.73915958  1
  Sb  Sb132  1  0.10584120  -0.06910744  0.09417375  1
  Sb  Sb133  1  0.10584120  -0.06910744  0.42750709  1
  Sb  Sb134  1  0.10584120  -0.06910744  0.76084042  1
  Sb  Sb135  1  0.60584120  -0.06910744  0.09417375  1
  Sb  Sb136  1  0.60584120  -0.06910744  0.42750709  1
  Sb  Sb137  1  0.60584120  -0.06910744  0.76084042  1
  Sb  Sb138  1  0.35584120  0.43089256  0.09417375  1
  Sb  Sb139  1  0.35584120  0.43089256  0.42750709  1
  Sb  Sb140  1  0.35584120  0.43089256  0.76084042  1
  Sb  Sb141  1  0.85584120  0.43089256  0.09417375  1
  Sb  Sb142  1  0.85584120  0.43089256  0.42750709  1
  Sb  Sb143  1  0.85584120  0.43089256  0.76084042  1
  O  O144  1  0.31829613  -0.13806754  0.32819454  1
  O  O145  1  0.31829613  -0.13806754  0.66152787  1
  O  O146  1  0.31829613  -0.13806754  0.99486121  1
  O  O147  1  0.81829613  -0.13806754  0.32819454  1
  O  O148  1  0.81829613  -0.13806754  0.66152787  1
  O  O149  1  0.81829613  -0.13806754  0.99486121  1
  O  O150  1  0.56829613  0.36193246  0.32819454  1
  O  O151  1  0.56829613  0.36193246  0.66152787  1
  O  O152  1  0.56829613  0.36193246  0.99486121  1
  O  O153  1  1.06829613  0.36193246  0.32819454  1
  O  O154  1  1.06829613  0.36193246  0.66152787  1
  O  O155  1  1.06829613  0.36193246  0.99486121  1
  O  O156  1  0.10181367  -0.18444926  0.01593123  1
  O  O157  1  0.10181367  -0.18444926  0.34926457  1
  O  O158  1  0.10181367  -0.18444926  0.68259790  1
  O  O159  1  0.60181367  -0.18444926  0.01593123  1
  O  O160  1  0.60181367  -0.18444926  0.34926457  1
  O  O161  1  0.60181367  -0.18444926  0.68259790  1
  O  O162  1  0.35181367  0.31555074  0.01593123  1
  O  O163  1  0.35181367  0.31555074  0.34926457  1
  O  O164  1  0.35181367  0.31555074  0.68259790  1
  O  O165  1  0.85181367  0.31555074  0.01593123  1
  O  O166  1  0.85181367  0.31555074  0.34926457  1
  O  O167  1  0.85181367  0.31555074  0.68259790  1
  O  O168  1  0.18170387  0.13806754  0.00513879  1
  O  O169  1  0.18170387  0.13806754  0.33847213  1
  O  O170  1  0.18170387  0.13806754  0.67180546  1
  O  O171  1  0.68170387  0.13806754  0.00513879  1
  O  O172  1  0.68170387  0.13806754  0.33847213  1
  O  O173  1  0.68170387  0.13806754  0.67180546  1
  O  O174  1  0.43170387  0.63806754  0.00513879  1
  O  O175  1  0.43170387  0.63806754  0.33847213  1
  O  O176  1  0.43170387  0.63806754  0.67180546  1
  O  O177  1  0.93170387  0.63806754  0.00513879  1
  O  O178  1  0.93170387  0.63806754  0.33847213  1
  O  O179  1  0.93170387  0.63806754  0.67180546  1
  O  O180  1  0.31829613  0.13806754  0.16152787  1
  O  O181  1  0.31829613  0.13806754  0.49486121  1
  O  O182  1  0.31829613  0.13806754  0.82819454  1
  O  O183  1  0.81829613  0.13806754  0.16152787  1
  O  O184  1  0.81829613  0.13806754  0.49486121  1
  O  O185  1  0.81829613  0.13806754  0.82819454  1
  O  O186  1  0.56829613  0.63806754  0.16152787  1
  O  O187  1  0.56829613  0.63806754  0.49486121  1
  O  O188  1  0.56829613  0.63806754  0.82819454  1
  O  O189  1  1.06829613  0.63806754  0.16152787  1
  O  O190  1  1.06829613  0.63806754  0.49486121  1
  O  O191  1  1.06829613  0.63806754  0.82819454  1
  O  O192  1  0.25000000  0.19382269  0.25000000  1
  O  O193  1  0.25000000  0.19382269  0.58333333  1
  O  O194  1  0.25000000  0.19382269  0.91666667  1
  O  O195  1  0.75000000  0.19382269  0.25000000  1
  O  O196  1  0.75000000  0.19382269  0.58333333  1
  O  O197  1  0.75000000  0.19382269  0.91666667  1
  O  O198  1  0.50000000  0.69382269  0.25000000  1
  O  O199  1  0.50000000  0.69382269  0.58333333  1
  O  O200  1  0.50000000  0.69382269  0.91666667  1
  O  O201  1  1.00000000  0.69382269  0.25000000  1
  O  O202  1  1.00000000  0.69382269  0.58333333  1
  O  O203  1  1.00000000  0.69382269  0.91666667  1
  O  O204  1  0.25000000  -0.19382269  0.08333333  1
  O  O205  1  0.25000000  -0.19382269  0.41666667  1
  O  O206  1  0.25000000  -0.19382269  0.75000000  1
  O  O207  1  0.75000000  -0.19382269  0.08333333  1
  O  O208  1  0.75000000  -0.19382269  0.41666667  1
  O  O209  1  0.75000000  -0.19382269  0.75000000  1
  O  O210  1  0.50000000  0.30617731  0.08333333  1
  O  O211  1  0.50000000  0.30617731  0.41666667  1
  O  O212  1  0.50000000  0.30617731  0.75000000  1
  O  O213  1  1.00000000  0.30617731  0.08333333  1
  O  O214  1  1.00000000  0.30617731  0.41666667  1
  O  O215  1  1.00000000  0.30617731  0.75000000  1
  O  O216  1  0.10181367  0.18444926  0.18259790  1
  O  O217  1  0.10181367  0.18444926  0.51593123  1
  O  O218  1  0.10181367  0.18444926  0.84926457  1
  O  O219  1  0.60181367  0.18444926  0.18259790  1
  O  O220  1  0.60181367  0.18444926  0.51593123  1
  O  O221  1  0.60181367  0.18444926  0.84926457  1
  O  O222  1  0.35181367  0.68444926  0.18259790  1
  O  O223  1  0.35181367  0.68444926  0.51593123  1
  O  O224  1  0.35181367  0.68444926  0.84926457  1
  O  O225  1  0.85181367  0.68444926  0.18259790  1
  O  O226  1  0.85181367  0.68444926  0.51593123  1
  O  O227  1  0.85181367  0.68444926  0.84926457  1
  O  O228  1  0.39818633  0.18444926  0.31740210  1
  O  O229  1  0.39818633  0.18444926  0.65073543  1
  O  O230  1  0.39818633  0.18444926  0.98406877  1
  O  O231  1  0.89818633  0.18444926  0.31740210  1
  O  O232  1  0.89818633  0.18444926  0.65073543  1
  O  O233  1  0.89818633  0.18444926  0.98406877  1
  O  O234  1  0.64818633  0.68444926  0.31740210  1
  O  O235  1  0.64818633  0.68444926  0.65073543  1
  O  O236  1  0.64818633  0.68444926  0.98406877  1
  O  O237  1  1.14818633  0.68444926  0.31740210  1
  O  O238  1  1.14818633  0.68444926  0.65073543  1
  O  O239  1  1.14818633  0.68444926  0.98406877  1
  O  O240  1  0.39818633  -0.18444926  0.15073543  1
  O  O241  1  0.39818633  -0.18444926  0.48406877  1
  O  O242  1  0.39818633  -0.18444926  0.81740210  1
  O  O243  1  0.89818633  -0.18444926  0.15073543  1
  O  O244  1  0.89818633  -0.18444926  0.48406877  1
  O  O245  1  0.89818633  -0.18444926  0.81740210  1
  O  O246  1  0.64818633  0.31555074  0.15073543  1
  O  O247  1  0.64818633  0.31555074  0.48406877  1
  O  O248  1  0.64818633  0.31555074  0.81740210  1
  O  O249  1  1.14818633  0.31555074  0.15073543  1
  O  O250  1  1.14818633  0.31555074  0.48406877  1
  O  O251  1  1.14818633  0.31555074  0.81740210  1
  O  O252  1  0.34622514  0.01303298  0.29778677  1
  O  O253  1  0.34622514  0.01303298  0.63112010  1
  O  O254  1  0.34622514  0.01303298  0.96445344  1
  O  O255  1  0.84622514  0.01303298  0.29778677  1
  O  O256  1  0.84622514  0.01303298  0.63112010  1
  O  O257  1  0.84622514  0.01303298  0.96445344  1
  O  O258  1  0.59622514  0.51303298  0.29778677  1
  O  O259  1  0.59622514  0.51303298  0.63112010  1
  O  O260  1  0.59622514  0.51303298  0.96445344  1
  O  O261  1  1.09622514  0.51303298  0.29778677  1
  O  O262  1  1.09622514  0.51303298  0.63112010  1
  O  O263  1  1.09622514  0.51303298  0.96445344  1
  O  O264  1  0.34622514  -0.01303298  0.13112010  1
  O  O265  1  0.34622514  -0.01303298  0.46445344  1
  O  O266  1  0.34622514  -0.01303298  0.79778677  1
  O  O267  1  0.84622514  -0.01303298  0.13112010  1
  O  O268  1  0.84622514  -0.01303298  0.46445344  1
  O  O269  1  0.84622514  -0.01303298  0.79778677  1
  O  O270  1  0.59622514  0.48696702  0.13112010  1
  O  O271  1  0.59622514  0.48696702  0.46445344  1
  O  O272  1  0.59622514  0.48696702  0.79778677  1
  O  O273  1  1.09622514  0.48696702  0.13112010  1
  O  O274  1  1.09622514  0.48696702  0.46445344  1
  O  O275  1  1.09622514  0.48696702  0.79778677  1
  O  O276  1  0.15377486  -0.01303298  0.03554656  1
  O  O277  1  0.15377486  -0.01303298  0.36887990  1
  O  O278  1  0.15377486  -0.01303298  0.70221323  1
  O  O279  1  0.65377486  -0.01303298  0.03554656  1
  O  O280  1  0.65377486  -0.01303298  0.36887990  1
  O  O281  1  0.65377486  -0.01303298  0.70221323  1
  O  O282  1  0.40377486  0.48696702  0.03554656  1
  O  O283  1  0.40377486  0.48696702  0.36887990  1
  O  O284  1  0.40377486  0.48696702  0.70221323  1
  O  O285  1  0.90377486  0.48696702  0.03554656  1
  O  O286  1  0.90377486  0.48696702  0.36887990  1
  O  O287  1  0.90377486  0.48696702  0.70221323  1
  O  O288  1  0.18170387  -0.13806754  0.17180546  1
  O  O289  1  0.18170387  -0.13806754  0.50513879  1
  O  O290  1  0.18170387  -0.13806754  0.83847213  1
  O  O291  1  0.68170387  -0.13806754  0.17180546  1
  O  O292  1  0.68170387  -0.13806754  0.50513879  1
  O  O293  1  0.68170387  -0.13806754  0.83847213  1
  O  O294  1  0.43170387  0.36193246  0.17180546  1
  O  O295  1  0.43170387  0.36193246  0.50513879  1
  O  O296  1  0.43170387  0.36193246  0.83847213  1
  O  O297  1  0.93170387  0.36193246  0.17180546  1
  O  O298  1  0.93170387  0.36193246  0.50513879  1
  O  O299  1  0.93170387  0.36193246  0.83847213  1
  O  O300  1  0.15377486  0.01303298  0.20221323  1
  O  O301  1  0.15377486  0.01303298  0.53554656  1
  O  O302  1  0.15377486  0.01303298  0.86887990  1
  O  O303  1  0.65377486  0.01303298  0.20221323  1
  O  O304  1  0.65377486  0.01303298  0.53554656  1
  O  O305  1  0.65377486  0.01303298  0.86887990  1
  O  O306  1  0.40377486  0.51303298  0.20221323  1
  O  O307  1  0.40377486  0.51303298  0.53554656  1
  O  O308  1  0.40377486  0.51303298  0.86887990  1
  O  O309  1  0.90377486  0.51303298  0.20221323  1
  O  O310  1  0.90377486  0.51303298  0.53554656  1
  O  O311  1  0.90377486  0.51303298  0.86887990  1
