# generated using pymatgen
data_Na4SnO4
_symmetry_space_group_name_H-M   'P 1'
_cell_length_a   17.50977120
_cell_length_b   17.53730893
_cell_length_c   17.55633672
_cell_angle_alpha   82.40916364
_cell_angle_beta   71.12098164
_cell_angle_gamma   68.60361215
_symmetry_Int_Tables_number   1
_chemical_formula_structural   Na4SnO4
_chemical_formula_sum   'Na144 Sn36 O144'
_cell_volume   4748.90246454
_cell_formula_units_Z   36
loop_
 _symmetry_equiv_pos_site_id
 _symmetry_equiv_pos_as_xyz
  1  'x, y, z'
loop_
 _atom_site_type_symbol
 _atom_site_label
 _atom_site_symmetry_multiplicity
 _atom_site_fract_x
 _atom_site_fract_y
 _atom_site_fract_z
 _atom_site_occupancy
  Na  Na0  1  0.08495406  0.08137582  0.00346146  1
  Na  Na1  1  0.08495406  0.08137582  0.50346146  1
  Na  Na2  1  0.08495406  0.41470915  0.00346146  1
  Na  Na3  1  0.08495406  0.41470915  0.50346146  1
  Na  Na4  1  0.08495406  0.74804249  0.00346146  1
  Na  Na5  1  0.08495406  0.74804249  0.50346146  1
  Na  Na6  1  0.41828739  0.08137582  0.00346146  1
  Na  Na7  1  0.41828739  0.08137582  0.50346146  1
  Na  Na8  1  0.41828739  0.41470915  0.00346146  1
  Na  Na9  1  0.41828739  0.41470915  0.50346146  1
  Na  Na10  1  0.41828739  0.74804249  0.00346146  1
  Na  Na11  1  0.41828739  0.74804249  0.50346146  1
  Na  Na12  1  0.75162073  0.08137582  0.00346146  1
  Na  Na13  1  0.75162073  0.08137582  0.50346146  1
  Na  Na14  1  0.75162073  0.41470915  0.00346146  1
  Na  Na15  1  0.75162073  0.41470915  0.50346146  1
  Na  Na16  1  0.75162073  0.74804249  0.00346146  1
  Na  Na17  1  0.75162073  0.74804249  0.50346146  1
  Na  Na18  1  0.24837927  0.25195751  0.49653854  1
  Na  Na19  1  0.24837927  0.25195751  0.99653854  1
  Na  Na20  1  0.24837927  0.58529085  0.49653854  1
  Na  Na21  1  0.24837927  0.58529085  0.99653854  1
  Na  Na22  1  0.24837927  0.91862418  0.49653854  1
  Na  Na23  1  0.24837927  0.91862418  0.99653854  1
  Na  Na24  1  0.58171261  0.25195751  0.49653854  1
  Na  Na25  1  0.58171261  0.25195751  0.99653854  1
  Na  Na26  1  0.58171261  0.58529085  0.49653854  1
  Na  Na27  1  0.58171261  0.58529085  0.99653854  1
  Na  Na28  1  0.58171261  0.91862418  0.49653854  1
  Na  Na29  1  0.58171261  0.91862418  0.99653854  1
  Na  Na30  1  0.91504594  0.25195751  0.49653854  1
  Na  Na31  1  0.91504594  0.25195751  0.99653854  1
  Na  Na32  1  0.91504594  0.58529085  0.49653854  1
  Na  Na33  1  0.91504594  0.58529085  0.99653854  1
  Na  Na34  1  0.91504594  0.91862418  0.49653854  1
  Na  Na35  1  0.91504594  0.91862418  0.99653854  1
  Na  Na36  1  0.00642852  0.08803152  0.21758721  1
  Na  Na37  1  0.00642852  0.08803152  0.71758721  1
  Na  Na38  1  0.00642852  0.42136485  0.21758721  1
  Na  Na39  1  0.00642852  0.42136485  0.71758721  1
  Na  Na40  1  0.00642852  0.75469818  0.21758721  1
  Na  Na41  1  0.00642852  0.75469818  0.71758721  1
  Na  Na42  1  0.33976185  0.08803152  0.21758721  1
  Na  Na43  1  0.33976185  0.08803152  0.71758721  1
  Na  Na44  1  0.33976185  0.42136485  0.21758721  1
  Na  Na45  1  0.33976185  0.42136485  0.71758721  1
  Na  Na46  1  0.33976185  0.75469818  0.21758721  1
  Na  Na47  1  0.33976185  0.75469818  0.71758721  1
  Na  Na48  1  0.67309518  0.08803152  0.21758721  1
  Na  Na49  1  0.67309518  0.08803152  0.71758721  1
  Na  Na50  1  0.67309518  0.42136485  0.21758721  1
  Na  Na51  1  0.67309518  0.42136485  0.71758721  1
  Na  Na52  1  0.67309518  0.75469818  0.21758721  1
  Na  Na53  1  0.67309518  0.75469818  0.71758721  1
  Na  Na54  1  0.32690482  0.24530182  0.28241279  1
  Na  Na55  1  0.32690482  0.24530182  0.78241279  1
  Na  Na56  1  0.32690482  0.57863515  0.28241279  1
  Na  Na57  1  0.32690482  0.57863515  0.78241279  1
  Na  Na58  1  0.32690482  0.91196848  0.28241279  1
  Na  Na59  1  0.32690482  0.91196848  0.78241279  1
  Na  Na60  1  0.66023815  0.24530182  0.28241279  1
  Na  Na61  1  0.66023815  0.24530182  0.78241279  1
  Na  Na62  1  0.66023815  0.57863515  0.28241279  1
  Na  Na63  1  0.66023815  0.57863515  0.78241279  1
  Na  Na64  1  0.66023815  0.91196848  0.28241279  1
  Na  Na65  1  0.66023815  0.91196848  0.78241279  1
  Na  Na66  1  0.99357148  0.24530182  0.28241279  1
  Na  Na67  1  0.99357148  0.24530182  0.78241279  1
  Na  Na68  1  0.99357148  0.57863515  0.28241279  1
  Na  Na69  1  0.99357148  0.57863515  0.78241279  1
  Na  Na70  1  0.99357148  0.91196848  0.28241279  1
  Na  Na71  1  0.99357148  0.91196848  0.78241279  1
  Na  Na72  1  0.14536702  0.08336729  0.29725232  1
  Na  Na73  1  0.14536702  0.08336729  0.79725232  1
  Na  Na74  1  0.14536702  0.41670063  0.29725232  1
  Na  Na75  1  0.14536702  0.41670063  0.79725232  1
  Na  Na76  1  0.14536702  0.75003396  0.29725232  1
  Na  Na77  1  0.14536702  0.75003396  0.79725232  1
  Na  Na78  1  0.47870035  0.08336729  0.29725232  1
  Na  Na79  1  0.47870035  0.08336729  0.79725232  1
  Na  Na80  1  0.47870035  0.41670063  0.29725232  1
  Na  Na81  1  0.47870035  0.41670063  0.79725232  1
  Na  Na82  1  0.47870035  0.75003396  0.29725232  1
  Na  Na83  1  0.47870035  0.75003396  0.79725232  1
  Na  Na84  1  0.81203369  0.08336729  0.29725232  1
  Na  Na85  1  0.81203369  0.08336729  0.79725232  1
  Na  Na86  1  0.81203369  0.41670063  0.29725232  1
  Na  Na87  1  0.81203369  0.41670063  0.79725232  1
  Na  Na88  1  0.81203369  0.75003396  0.29725232  1
  Na  Na89  1  0.81203369  0.75003396  0.79725232  1
  Na  Na90  1  0.18796631  0.24996604  0.20274768  1
  Na  Na91  1  0.18796631  0.24996604  0.70274768  1
  Na  Na92  1  0.18796631  0.58329937  0.20274768  1
  Na  Na93  1  0.18796631  0.58329937  0.70274768  1
  Na  Na94  1  0.18796631  0.91663271  0.20274768  1
  Na  Na95  1  0.18796631  0.91663271  0.70274768  1
  Na  Na96  1  0.52129965  0.24996604  0.20274768  1
  Na  Na97  1  0.52129965  0.24996604  0.70274768  1
  Na  Na98  1  0.52129965  0.58329937  0.20274768  1
  Na  Na99  1  0.52129965  0.58329937  0.70274768  1
  Na  Na100  1  0.52129965  0.91663271  0.20274768  1
  Na  Na101  1  0.52129965  0.91663271  0.70274768  1
  Na  Na102  1  0.85463298  0.24996604  0.20274768  1
  Na  Na103  1  0.85463298  0.24996604  0.70274768  1
  Na  Na104  1  0.85463298  0.58329937  0.20274768  1
  Na  Na105  1  0.85463298  0.58329937  0.70274768  1
  Na  Na106  1  0.85463298  0.91663271  0.20274768  1
  Na  Na107  1  0.85463298  0.91663271  0.70274768  1
  Na  Na108  1  0.03750398  0.24016722  0.09868515  1
  Na  Na109  1  0.03750398  0.24016722  0.59868515  1
  Na  Na110  1  0.03750398  0.57350055  0.09868515  1
  Na  Na111  1  0.03750398  0.57350055  0.59868515  1
  Na  Na112  1  0.03750398  0.90683389  0.09868515  1
  Na  Na113  1  0.03750398  0.90683389  0.59868515  1
  Na  Na114  1  0.37083732  0.24016722  0.09868515  1
  Na  Na115  1  0.37083732  0.24016722  0.59868515  1
  Na  Na116  1  0.37083732  0.57350055  0.09868515  1
  Na  Na117  1  0.37083732  0.57350055  0.59868515  1
  Na  Na118  1  0.37083732  0.90683389  0.09868515  1
  Na  Na119  1  0.37083732  0.90683389  0.59868515  1
  Na  Na120  1  0.70417065  0.24016722  0.09868515  1
  Na  Na121  1  0.70417065  0.24016722  0.59868515  1
  Na  Na122  1  0.70417065  0.57350055  0.09868515  1
  Na  Na123  1  0.70417065  0.57350055  0.59868515  1
  Na  Na124  1  0.70417065  0.90683389  0.09868515  1
  Na  Na125  1  0.70417065  0.90683389  0.59868515  1
  Na  Na126  1  0.29582935  0.09316611  0.40131485  1
  Na  Na127  1  0.29582935  0.09316611  0.90131485  1
  Na  Na128  1  0.29582935  0.42649945  0.40131485  1
  Na  Na129  1  0.29582935  0.42649945  0.90131485  1
  Na  Na130  1  0.29582935  0.75983278  0.40131485  1
  Na  Na131  1  0.29582935  0.75983278  0.90131485  1
  Na  Na132  1  0.62916268  0.09316611  0.40131485  1
  Na  Na133  1  0.62916268  0.09316611  0.90131485  1
  Na  Na134  1  0.62916268  0.42649945  0.40131485  1
  Na  Na135  1  0.62916268  0.42649945  0.90131485  1
  Na  Na136  1  0.62916268  0.75983278  0.40131485  1
  Na  Na137  1  0.62916268  0.75983278  0.90131485  1
  Na  Na138  1  0.96249602  0.09316611  0.40131485  1
  Na  Na139  1  0.96249602  0.09316611  0.90131485  1
  Na  Na140  1  0.96249602  0.42649945  0.40131485  1
  Na  Na141  1  0.96249602  0.42649945  0.90131485  1
  Na  Na142  1  0.96249602  0.75983278  0.40131485  1
  Na  Na143  1  0.96249602  0.75983278  0.90131485  1
  Sn  Sn144  1  0.11334969  0.24057669  0.38306522  1
  Sn  Sn145  1  0.11334969  0.24057669  0.88306522  1
  Sn  Sn146  1  0.11334969  0.57391002  0.38306522  1
  Sn  Sn147  1  0.11334969  0.57391002  0.88306522  1
  Sn  Sn148  1  0.11334969  0.90724335  0.38306522  1
  Sn  Sn149  1  0.11334969  0.90724335  0.88306522  1
  Sn  Sn150  1  0.44668302  0.24057669  0.38306522  1
  Sn  Sn151  1  0.44668302  0.24057669  0.88306522  1
  Sn  Sn152  1  0.44668302  0.57391002  0.38306522  1
  Sn  Sn153  1  0.44668302  0.57391002  0.88306522  1
  Sn  Sn154  1  0.44668302  0.90724335  0.38306522  1
  Sn  Sn155  1  0.44668302  0.90724335  0.88306522  1
  Sn  Sn156  1  0.78001635  0.24057669  0.38306522  1
  Sn  Sn157  1  0.78001635  0.24057669  0.88306522  1
  Sn  Sn158  1  0.78001635  0.57391002  0.38306522  1
  Sn  Sn159  1  0.78001635  0.57391002  0.88306522  1
  Sn  Sn160  1  0.78001635  0.90724335  0.38306522  1
  Sn  Sn161  1  0.78001635  0.90724335  0.88306522  1
  Sn  Sn162  1  0.21998365  0.09275665  0.11693478  1
  Sn  Sn163  1  0.21998365  0.09275665  0.61693478  1
  Sn  Sn164  1  0.21998365  0.42608998  0.11693478  1
  Sn  Sn165  1  0.21998365  0.42608998  0.61693478  1
  Sn  Sn166  1  0.21998365  0.75942331  0.11693478  1
  Sn  Sn167  1  0.21998365  0.75942331  0.61693478  1
  Sn  Sn168  1  0.55331698  0.09275665  0.11693478  1
  Sn  Sn169  1  0.55331698  0.09275665  0.61693478  1
  Sn  Sn170  1  0.55331698  0.42608998  0.11693478  1
  Sn  Sn171  1  0.55331698  0.42608998  0.61693478  1
  Sn  Sn172  1  0.55331698  0.75942331  0.11693478  1
  Sn  Sn173  1  0.55331698  0.75942331  0.61693478  1
  Sn  Sn174  1  0.88665031  0.09275665  0.11693478  1
  Sn  Sn175  1  0.88665031  0.09275665  0.61693478  1
  Sn  Sn176  1  0.88665031  0.42608998  0.11693478  1
  Sn  Sn177  1  0.88665031  0.42608998  0.61693478  1
  Sn  Sn178  1  0.88665031  0.75942331  0.11693478  1
  Sn  Sn179  1  0.88665031  0.75942331  0.61693478  1
  O  O180  1  0.04077882  0.17165438  0.40248093  1
  O  O181  1  0.04077882  0.17165438  0.90248093  1
  O  O182  1  0.04077882  0.50498771  0.40248093  1
  O  O183  1  0.04077882  0.50498771  0.90248093  1
  O  O184  1  0.04077882  0.83832105  0.40248093  1
  O  O185  1  0.04077882  0.83832105  0.90248093  1
  O  O186  1  0.37411216  0.17165438  0.40248093  1
  O  O187  1  0.37411216  0.17165438  0.90248093  1
  O  O188  1  0.37411216  0.50498771  0.40248093  1
  O  O189  1  0.37411216  0.50498771  0.90248093  1
  O  O190  1  0.37411216  0.83832105  0.40248093  1
  O  O191  1  0.37411216  0.83832105  0.90248093  1
  O  O192  1  0.70744549  0.17165438  0.40248093  1
  O  O193  1  0.70744549  0.17165438  0.90248093  1
  O  O194  1  0.70744549  0.50498771  0.40248093  1
  O  O195  1  0.70744549  0.50498771  0.90248093  1
  O  O196  1  0.70744549  0.83832105  0.40248093  1
  O  O197  1  0.70744549  0.83832105  0.90248093  1
  O  O198  1  0.29255451  0.16167895  0.09751907  1
  O  O199  1  0.29255451  0.16167895  0.59751907  1
  O  O200  1  0.29255451  0.49501229  0.09751907  1
  O  O201  1  0.29255451  0.49501229  0.59751907  1
  O  O202  1  0.29255451  0.82834562  0.09751907  1
  O  O203  1  0.29255451  0.82834562  0.59751907  1
  O  O204  1  0.62588784  0.16167895  0.09751907  1
  O  O205  1  0.62588784  0.16167895  0.59751907  1
  O  O206  1  0.62588784  0.49501229  0.09751907  1
  O  O207  1  0.62588784  0.49501229  0.59751907  1
  O  O208  1  0.62588784  0.82834562  0.09751907  1
  O  O209  1  0.62588784  0.82834562  0.59751907  1
  O  O210  1  0.95922118  0.16167895  0.09751907  1
  O  O211  1  0.95922118  0.16167895  0.59751907  1
  O  O212  1  0.95922118  0.49501229  0.09751907  1
  O  O213  1  0.95922118  0.49501229  0.59751907  1
  O  O214  1  0.95922118  0.82834562  0.09751907  1
  O  O215  1  0.95922118  0.82834562  0.59751907  1
  O  O216  1  0.26654316  0.00408164  0.19043218  1
  O  O217  1  0.26654316  0.00408164  0.69043218  1
  O  O218  1  0.26654316  0.33741498  0.19043218  1
  O  O219  1  0.26654316  0.33741498  0.69043218  1
  O  O220  1  0.26654316  0.67074831  0.19043218  1
  O  O221  1  0.26654316  0.67074831  0.69043218  1
  O  O222  1  0.59987649  0.00408164  0.19043218  1
  O  O223  1  0.59987649  0.00408164  0.69043218  1
  O  O224  1  0.59987649  0.33741498  0.19043218  1
  O  O225  1  0.59987649  0.33741498  0.69043218  1
  O  O226  1  0.59987649  0.67074831  0.19043218  1
  O  O227  1  0.59987649  0.67074831  0.69043218  1
  O  O228  1  0.93320982  0.00408164  0.19043218  1
  O  O229  1  0.93320982  0.00408164  0.69043218  1
  O  O230  1  0.93320982  0.33741498  0.19043218  1
  O  O231  1  0.93320982  0.33741498  0.69043218  1
  O  O232  1  0.93320982  0.67074831  0.19043218  1
  O  O233  1  0.93320982  0.67074831  0.69043218  1
  O  O234  1  0.06679018  0.32925169  0.30956782  1
  O  O235  1  0.06679018  0.32925169  0.80956782  1
  O  O236  1  0.06679018  0.66258502  0.30956782  1
  O  O237  1  0.06679018  0.66258502  0.80956782  1
  O  O238  1  0.06679018  0.99591836  0.30956782  1
  O  O239  1  0.06679018  0.99591836  0.80956782  1
  O  O240  1  0.40012351  0.32925169  0.30956782  1
  O  O241  1  0.40012351  0.32925169  0.80956782  1
  O  O242  1  0.40012351  0.66258502  0.30956782  1
  O  O243  1  0.40012351  0.66258502  0.80956782  1
  O  O244  1  0.40012351  0.99591836  0.30956782  1
  O  O245  1  0.40012351  0.99591836  0.80956782  1
  O  O246  1  0.73345684  0.32925169  0.30956782  1
  O  O247  1  0.73345684  0.32925169  0.80956782  1
  O  O248  1  0.73345684  0.66258502  0.30956782  1
  O  O249  1  0.73345684  0.66258502  0.80956782  1
  O  O250  1  0.73345684  0.99591836  0.30956782  1
  O  O251  1  0.73345684  0.99591836  0.80956782  1
  O  O252  1  0.10632206  0.16020674  0.18651796  1
  O  O253  1  0.10632206  0.16020674  0.68651796  1
  O  O254  1  0.10632206  0.49354007  0.18651796  1
  O  O255  1  0.10632206  0.49354007  0.68651796  1
  O  O256  1  0.10632206  0.82687341  0.18651796  1
  O  O257  1  0.10632206  0.82687341  0.68651796  1
  O  O258  1  0.43965539  0.16020674  0.18651796  1
  O  O259  1  0.43965539  0.16020674  0.68651796  1
  O  O260  1  0.43965539  0.49354007  0.18651796  1
  O  O261  1  0.43965539  0.49354007  0.68651796  1
  O  O262  1  0.43965539  0.82687341  0.18651796  1
  O  O263  1  0.43965539  0.82687341  0.68651796  1
  O  O264  1  0.77298872  0.16020674  0.18651796  1
  O  O265  1  0.77298872  0.16020674  0.68651796  1
  O  O266  1  0.77298872  0.49354007  0.18651796  1
  O  O267  1  0.77298872  0.49354007  0.68651796  1
  O  O268  1  0.77298872  0.82687341  0.18651796  1
  O  O269  1  0.77298872  0.82687341  0.68651796  1
  O  O270  1  0.22701128  0.17312659  0.31348204  1
  O  O271  1  0.22701128  0.17312659  0.81348204  1
  O  O272  1  0.22701128  0.50645993  0.31348204  1
  O  O273  1  0.22701128  0.50645993  0.81348204  1
  O  O274  1  0.22701128  0.83979326  0.31348204  1
  O  O275  1  0.22701128  0.83979326  0.81348204  1
  O  O276  1  0.56034461  0.17312659  0.31348204  1
  O  O277  1  0.56034461  0.17312659  0.81348204  1
  O  O278  1  0.56034461  0.50645993  0.31348204  1
  O  O279  1  0.56034461  0.50645993  0.81348204  1
  O  O280  1  0.56034461  0.83979326  0.31348204  1
  O  O281  1  0.56034461  0.83979326  0.81348204  1
  O  O282  1  0.89367794  0.17312659  0.31348204  1
  O  O283  1  0.89367794  0.17312659  0.81348204  1
  O  O284  1  0.89367794  0.50645993  0.31348204  1
  O  O285  1  0.89367794  0.50645993  0.81348204  1
  O  O286  1  0.89367794  0.83979326  0.31348204  1
  O  O287  1  0.89367794  0.83979326  0.81348204  1
  O  O288  1  0.11663945  0.28024193  0.48065821  1
  O  O289  1  0.11663945  0.28024193  0.98065821  1
  O  O290  1  0.11663945  0.61357526  0.48065821  1
  O  O291  1  0.11663945  0.61357526  0.98065821  1
  O  O292  1  0.11663945  0.94690859  0.48065821  1
  O  O293  1  0.11663945  0.94690859  0.98065821  1
  O  O294  1  0.44997279  0.28024193  0.48065821  1
  O  O295  1  0.44997279  0.28024193  0.98065821  1
  O  O296  1  0.44997279  0.61357526  0.48065821  1
  O  O297  1  0.44997279  0.61357526  0.98065821  1
  O  O298  1  0.44997279  0.94690859  0.48065821  1
  O  O299  1  0.44997279  0.94690859  0.98065821  1
  O  O300  1  0.78330612  0.28024193  0.48065821  1
  O  O301  1  0.78330612  0.28024193  0.98065821  1
  O  O302  1  0.78330612  0.61357526  0.48065821  1
  O  O303  1  0.78330612  0.61357526  0.98065821  1
  O  O304  1  0.78330612  0.94690859  0.48065821  1
  O  O305  1  0.78330612  0.94690859  0.98065821  1
  O  O306  1  0.21669388  0.05309141  0.01934179  1
  O  O307  1  0.21669388  0.05309141  0.51934179  1
  O  O308  1  0.21669388  0.38642474  0.01934179  1
  O  O309  1  0.21669388  0.38642474  0.51934179  1
  O  O310  1  0.21669388  0.71975807  0.01934179  1
  O  O311  1  0.21669388  0.71975807  0.51934179  1
  O  O312  1  0.55002721  0.05309141  0.01934179  1
  O  O313  1  0.55002721  0.05309141  0.51934179  1
  O  O314  1  0.55002721  0.38642474  0.01934179  1
  O  O315  1  0.55002721  0.38642474  0.51934179  1
  O  O316  1  0.55002721  0.71975807  0.01934179  1
  O  O317  1  0.55002721  0.71975807  0.51934179  1
  O  O318  1  0.88336055  0.05309141  0.01934179  1
  O  O319  1  0.88336055  0.05309141  0.51934179  1
  O  O320  1  0.88336055  0.38642474  0.01934179  1
  O  O321  1  0.88336055  0.38642474  0.51934179  1
  O  O322  1  0.88336055  0.71975807  0.01934179  1
  O  O323  1  0.88336055  0.71975807  0.51934179  1
