# generated using pymatgen
data_Cs2Ti(GeO3)3
_symmetry_space_group_name_H-M   'P 1'
_cell_length_a   14.42655806
_cell_length_b   14.42655806
_cell_length_c   10.50753696
_cell_angle_alpha   90.00000000
_cell_angle_beta   90.00000000
_cell_angle_gamma   120.00000000
_symmetry_Int_Tables_number   1
_chemical_formula_structural   Cs2Ti(GeO3)3
_chemical_formula_sum   'Cs16 Ti8 Ge24 O72'
_cell_volume   1893.89986779
_cell_formula_units_Z   8
loop_
 _symmetry_equiv_pos_site_id
 _symmetry_equiv_pos_as_xyz
  1  'x, y, z'
loop_
 _atom_site_type_symbol
 _atom_site_label
 _atom_site_symmetry_multiplicity
 _atom_site_fract_x
 _atom_site_fract_y
 _atom_site_fract_z
 _atom_site_occupancy
  Cs  Cs0  1  0.33333333  0.16666667  0.94469660  1
  Cs  Cs1  1  0.33333333  0.66666667  0.94469660  1
  Cs  Cs2  1  0.83333333  0.16666667  0.94469660  1
  Cs  Cs3  1  0.83333333  0.66666667  0.94469660  1
  Cs  Cs4  1  0.16666667  0.33333333  0.44469660  1
  Cs  Cs5  1  0.16666667  0.83333333  0.44469660  1
  Cs  Cs6  1  0.66666667  0.33333333  0.44469660  1
  Cs  Cs7  1  0.66666667  0.83333333  0.44469660  1
  Cs  Cs8  1  0.16666667  0.33333333  0.05530340  1
  Cs  Cs9  1  0.16666667  0.83333333  0.05530340  1
  Cs  Cs10  1  0.66666667  0.33333333  0.05530340  1
  Cs  Cs11  1  0.66666667  0.83333333  0.05530340  1
  Cs  Cs12  1  0.33333333  0.16666667  0.55530340  1
  Cs  Cs13  1  0.33333333  0.66666667  0.55530340  1
  Cs  Cs14  1  0.83333333  0.16666667  0.55530340  1
  Cs  Cs15  1  0.83333333  0.66666667  0.55530340  1
  Ti  Ti16  1  0.00000000  0.00000000  0.00000000  1
  Ti  Ti17  1  -0.00000000  0.50000000  0.00000000  1
  Ti  Ti18  1  0.50000000  0.00000000  0.00000000  1
  Ti  Ti19  1  0.50000000  0.50000000  0.00000000  1
  Ti  Ti20  1  0.00000000  0.00000000  0.50000000  1
  Ti  Ti21  1  -0.00000000  0.50000000  0.50000000  1
  Ti  Ti22  1  0.50000000  0.00000000  0.50000000  1
  Ti  Ti23  1  0.50000000  0.50000000  0.50000000  1
  Ge  Ge24  1  0.43232482  0.31657213  0.25000000  1
  Ge  Ge25  1  0.43232482  0.81657213  0.25000000  1
  Ge  Ge26  1  0.93232482  0.31657213  0.25000000  1
  Ge  Ge27  1  0.93232482  0.81657213  0.25000000  1
  Ge  Ge28  1  0.38424731  0.06767518  0.25000000  1
  Ge  Ge29  1  0.38424731  0.56767518  0.25000000  1
  Ge  Ge30  1  0.88424731  0.06767518  0.25000000  1
  Ge  Ge31  1  0.88424731  0.56767518  0.25000000  1
  Ge  Ge32  1  0.18342787  0.11575269  0.25000000  1
  Ge  Ge33  1  0.18342787  0.61575269  0.25000000  1
  Ge  Ge34  1  0.68342787  0.11575269  0.25000000  1
  Ge  Ge35  1  0.68342787  0.61575269  0.25000000  1
  Ge  Ge36  1  0.11575269  0.43232482  0.75000000  1
  Ge  Ge37  1  0.11575269  0.93232482  0.75000000  1
  Ge  Ge38  1  0.61575269  0.43232482  0.75000000  1
  Ge  Ge39  1  0.61575269  0.93232482  0.75000000  1
  Ge  Ge40  1  0.31657213  0.38424731  0.75000000  1
  Ge  Ge41  1  0.31657213  0.88424731  0.75000000  1
  Ge  Ge42  1  0.81657213  0.38424731  0.75000000  1
  Ge  Ge43  1  0.81657213  0.88424731  0.75000000  1
  Ge  Ge44  1  0.06767518  0.18342787  0.75000000  1
  Ge  Ge45  1  0.06767518  0.68342787  0.75000000  1
  Ge  Ge46  1  0.56767518  0.18342787  0.75000000  1
  Ge  Ge47  1  0.56767518  0.68342787  0.75000000  1
  O  O48  1  0.10575988  0.48824845  0.89404403  1
  O  O49  1  0.10575988  0.98824845  0.89404403  1
  O  O50  1  0.60575988  0.48824845  0.89404403  1
  O  O51  1  0.60575988  0.98824845  0.89404403  1
  O  O52  1  0.11751144  0.10575988  0.39404403  1
  O  O53  1  0.11751144  0.60575988  0.39404403  1
  O  O54  1  0.61751144  0.10575988  0.39404403  1
  O  O55  1  0.61751144  0.60575988  0.39404403  1
  O  O56  1  0.48824845  0.38248856  0.39404403  1
  O  O57  1  0.48824845  0.88248856  0.39404403  1
  O  O58  1  0.98824845  0.38248856  0.39404403  1
  O  O59  1  0.98824845  0.88248856  0.39404403  1
  O  O60  1  0.01175155  0.11751144  0.89404403  1
  O  O61  1  0.01175155  0.61751144  0.89404403  1
  O  O62  1  0.51175155  0.11751144  0.89404403  1
  O  O63  1  0.51175155  0.61751144  0.89404403  1
  O  O64  1  0.38248856  0.39424012  0.89404403  1
  O  O65  1  0.38248856  0.89424012  0.89404403  1
  O  O66  1  0.88248856  0.39424012  0.89404403  1
  O  O67  1  0.88248856  0.89424012  0.89404403  1
  O  O68  1  0.39424012  0.01175155  0.39404403  1
  O  O69  1  0.39424012  0.51175155  0.39404403  1
  O  O70  1  0.89424012  0.01175155  0.39404403  1
  O  O71  1  0.89424012  0.51175155  0.39404403  1
  O  O72  1  0.39424012  0.01175155  0.10595597  1
  O  O73  1  0.39424012  0.51175155  0.10595597  1
  O  O74  1  0.89424012  0.01175155  0.10595597  1
  O  O75  1  0.89424012  0.51175155  0.10595597  1
  O  O76  1  0.38248856  0.39424012  0.60595597  1
  O  O77  1  0.38248856  0.89424012  0.60595597  1
  O  O78  1  0.88248856  0.39424012  0.60595597  1
  O  O79  1  0.88248856  0.89424012  0.60595597  1
  O  O80  1  0.01175155  0.11751144  0.60595597  1
  O  O81  1  0.01175155  0.61751144  0.60595597  1
  O  O82  1  0.51175155  0.11751144  0.60595597  1
  O  O83  1  0.51175155  0.61751144  0.60595597  1
  O  O84  1  0.48824845  0.38248856  0.10595597  1
  O  O85  1  0.48824845  0.88248856  0.10595597  1
  O  O86  1  0.98824845  0.38248856  0.10595597  1
  O  O87  1  0.98824845  0.88248856  0.10595597  1
  O  O88  1  0.11751144  0.10575988  0.10595597  1
  O  O89  1  0.11751144  0.60575988  0.10595597  1
  O  O90  1  0.61751144  0.10575988  0.10595597  1
  O  O91  1  0.61751144  0.60575988  0.10595597  1
  O  O92  1  0.10575988  0.48824845  0.60595597  1
  O  O93  1  0.10575988  0.98824845  0.60595597  1
  O  O94  1  0.60575988  0.48824845  0.60595597  1
  O  O95  1  0.60575988  0.98824845  0.60595597  1
  O  O96  1  0.03265502  0.28881278  0.75000000  1
  O  O97  1  0.03265502  0.78881278  0.75000000  1
  O  O98  1  0.53265502  0.28881278  0.75000000  1
  O  O99  1  0.53265502  0.78881278  0.75000000  1
  O  O100  1  0.24384224  0.03265502  0.25000000  1
  O  O101  1  0.24384224  0.53265502  0.25000000  1
  O  O102  1  0.74384224  0.03265502  0.25000000  1
  O  O103  1  0.74384224  0.53265502  0.25000000  1
  O  O104  1  0.28881278  0.25615776  0.25000000  1
  O  O105  1  0.28881278  0.75615776  0.25000000  1
  O  O106  1  0.78881278  0.25615776  0.25000000  1
  O  O107  1  0.78881278  0.75615776  0.25000000  1
  O  O108  1  0.21118722  0.24384224  0.75000000  1
  O  O109  1  0.21118722  0.74384224  0.75000000  1
  O  O110  1  0.71118722  0.24384224  0.75000000  1
  O  O111  1  0.71118722  0.74384224  0.75000000  1
  O  O112  1  0.25615776  0.46734498  0.75000000  1
  O  O113  1  0.25615776  0.96734498  0.75000000  1
  O  O114  1  0.75615776  0.46734498  0.75000000  1
  O  O115  1  0.75615776  0.96734498  0.75000000  1
  O  O116  1  0.46734498  0.21118722  0.25000000  1
  O  O117  1  0.46734498  0.71118722  0.25000000  1
  O  O118  1  0.96734498  0.21118722  0.25000000  1
  O  O119  1  0.96734498  0.71118722  0.25000000  1
