# generated using pymatgen
data_LaTaO4
_symmetry_space_group_name_H-M   'P 1'
_cell_length_a   15.24603080
_cell_length_b   16.58989097
_cell_length_c   15.57586041
_cell_angle_alpha   90.00000000
_cell_angle_beta   101.04852625
_cell_angle_gamma   90.00000000
_symmetry_Int_Tables_number   1
_chemical_formula_structural   LaTaO4
_chemical_formula_sum   'La48 Ta48 O192'
_cell_volume   3866.58256559
_cell_formula_units_Z   48
loop_
 _symmetry_equiv_pos_site_id
 _symmetry_equiv_pos_as_xyz
  1  'x, y, z'
loop_
 _atom_site_type_symbol
 _atom_site_label
 _atom_site_symmetry_multiplicity
 _atom_site_fract_x
 _atom_site_fract_y
 _atom_site_fract_z
 _atom_site_occupancy
  La  La0  1  0.17303595  0.07570784  0.04890218  1
  La  La1  1  0.17303595  0.07570784  0.54890218  1
  La  La2  1  0.17303595  0.40904117  0.04890218  1
  La  La3  1  0.17303595  0.40904117  0.54890218  1
  La  La4  1  0.17303595  0.74237450  0.04890218  1
  La  La5  1  0.17303595  0.74237450  0.54890218  1
  La  La6  1  0.67303595  0.07570784  0.04890218  1
  La  La7  1  0.67303595  0.07570784  0.54890218  1
  La  La8  1  0.67303595  0.40904117  0.04890218  1
  La  La9  1  0.67303595  0.40904117  0.54890218  1
  La  La10  1  0.67303595  0.74237450  0.04890218  1
  La  La11  1  0.67303595  0.74237450  0.54890218  1
  La  La12  1  0.32696405  0.24237450  0.20109782  1
  La  La13  1  0.32696405  0.24237450  0.70109782  1
  La  La14  1  0.32696405  0.57570784  0.20109782  1
  La  La15  1  0.32696405  0.57570784  0.70109782  1
  La  La16  1  0.32696405  0.90904117  0.20109782  1
  La  La17  1  0.32696405  0.90904117  0.70109782  1
  La  La18  1  0.82696405  0.24237450  0.20109782  1
  La  La19  1  0.82696405  0.24237450  0.70109782  1
  La  La20  1  0.82696405  0.57570784  0.20109782  1
  La  La21  1  0.82696405  0.57570784  0.70109782  1
  La  La22  1  0.82696405  0.90904117  0.20109782  1
  La  La23  1  0.82696405  0.90904117  0.70109782  1
  La  La24  1  0.32696405  0.25762550  0.45109782  1
  La  La25  1  0.32696405  0.25762550  0.95109782  1
  La  La26  1  0.32696405  0.59095883  0.45109782  1
  La  La27  1  0.32696405  0.59095883  0.95109782  1
  La  La28  1  0.32696405  0.92429216  0.45109782  1
  La  La29  1  0.32696405  0.92429216  0.95109782  1
  La  La30  1  0.82696405  0.25762550  0.45109782  1
  La  La31  1  0.82696405  0.25762550  0.95109782  1
  La  La32  1  0.82696405  0.59095883  0.45109782  1
  La  La33  1  0.82696405  0.59095883  0.95109782  1
  La  La34  1  0.82696405  0.92429216  0.45109782  1
  La  La35  1  0.82696405  0.92429216  0.95109782  1
  La  La36  1  0.17303595  0.09095883  0.29890218  1
  La  La37  1  0.17303595  0.09095883  0.79890218  1
  La  La38  1  0.17303595  0.42429216  0.29890218  1
  La  La39  1  0.17303595  0.42429216  0.79890218  1
  La  La40  1  0.17303595  0.75762550  0.29890218  1
  La  La41  1  0.17303595  0.75762550  0.79890218  1
  La  La42  1  0.67303595  0.09095883  0.29890218  1
  La  La43  1  0.67303595  0.09095883  0.79890218  1
  La  La44  1  0.67303595  0.42429216  0.29890218  1
  La  La45  1  0.67303595  0.42429216  0.79890218  1
  La  La46  1  0.67303595  0.75762550  0.29890218  1
  La  La47  1  0.67303595  0.75762550  0.79890218  1
  Ta  Ta48  1  0.08374678  0.24445209  0.15035442  1
  Ta  Ta49  1  0.08374678  0.24445209  0.65035442  1
  Ta  Ta50  1  0.08374678  0.57778543  0.15035442  1
  Ta  Ta51  1  0.08374678  0.57778543  0.65035442  1
  Ta  Ta52  1  0.08374678  0.91111876  0.15035442  1
  Ta  Ta53  1  0.08374678  0.91111876  0.65035442  1
  Ta  Ta54  1  0.58374678  0.24445209  0.15035442  1
  Ta  Ta55  1  0.58374678  0.24445209  0.65035442  1
  Ta  Ta56  1  0.58374678  0.57778543  0.15035442  1
  Ta  Ta57  1  0.58374678  0.57778543  0.65035442  1
  Ta  Ta58  1  0.58374678  0.91111876  0.15035442  1
  Ta  Ta59  1  0.58374678  0.91111876  0.65035442  1
  Ta  Ta60  1  0.41625322  0.07778543  0.09964558  1
  Ta  Ta61  1  0.41625322  0.07778543  0.59964558  1
  Ta  Ta62  1  0.41625322  0.41111876  0.09964558  1
  Ta  Ta63  1  0.41625322  0.41111876  0.59964558  1
  Ta  Ta64  1  0.41625322  0.74445209  0.09964558  1
  Ta  Ta65  1  0.41625322  0.74445209  0.59964558  1
  Ta  Ta66  1  0.91625322  0.07778543  0.09964558  1
  Ta  Ta67  1  0.91625322  0.07778543  0.59964558  1
  Ta  Ta68  1  0.91625322  0.41111876  0.09964558  1
  Ta  Ta69  1  0.91625322  0.41111876  0.59964558  1
  Ta  Ta70  1  0.91625322  0.74445209  0.09964558  1
  Ta  Ta71  1  0.91625322  0.74445209  0.59964558  1
  Ta  Ta72  1  0.41625322  0.08888124  0.34964558  1
  Ta  Ta73  1  0.41625322  0.08888124  0.84964558  1
  Ta  Ta74  1  0.41625322  0.42221457  0.34964558  1
  Ta  Ta75  1  0.41625322  0.42221457  0.84964558  1
  Ta  Ta76  1  0.41625322  0.75554791  0.34964558  1
  Ta  Ta77  1  0.41625322  0.75554791  0.84964558  1
  Ta  Ta78  1  0.91625322  0.08888124  0.34964558  1
  Ta  Ta79  1  0.91625322  0.08888124  0.84964558  1
  Ta  Ta80  1  0.91625322  0.42221457  0.34964558  1
  Ta  Ta81  1  0.91625322  0.42221457  0.84964558  1
  Ta  Ta82  1  0.91625322  0.75554791  0.34964558  1
  Ta  Ta83  1  0.91625322  0.75554791  0.84964558  1
  Ta  Ta84  1  0.08374678  0.25554791  0.40035442  1
  Ta  Ta85  1  0.08374678  0.25554791  0.90035442  1
  Ta  Ta86  1  0.08374678  0.58888124  0.40035442  1
  Ta  Ta87  1  0.08374678  0.58888124  0.90035442  1
  Ta  Ta88  1  0.08374678  0.92221457  0.40035442  1
  Ta  Ta89  1  0.08374678  0.92221457  0.90035442  1
  Ta  Ta90  1  0.58374678  0.25554791  0.40035442  1
  Ta  Ta91  1  0.58374678  0.25554791  0.90035442  1
  Ta  Ta92  1  0.58374678  0.58888124  0.40035442  1
  Ta  Ta93  1  0.58374678  0.58888124  0.90035442  1
  Ta  Ta94  1  0.58374678  0.92221457  0.40035442  1
  Ta  Ta95  1  0.58374678  0.92221457  0.90035442  1
  O  O96  1  0.16892487  0.16985289  0.43203687  1
  O  O97  1  0.16892487  0.16985289  0.93203687  1
  O  O98  1  0.16892487  0.50318622  0.43203687  1
  O  O99  1  0.16892487  0.50318622  0.93203687  1
  O  O100  1  0.16892487  0.83651956  0.43203687  1
  O  O101  1  0.16892487  0.83651956  0.93203687  1
  O  O102  1  0.66892487  0.16985289  0.43203687  1
  O  O103  1  0.66892487  0.16985289  0.93203687  1
  O  O104  1  0.66892487  0.50318622  0.43203687  1
  O  O105  1  0.66892487  0.50318622  0.93203687  1
  O  O106  1  0.66892487  0.83651956  0.43203687  1
  O  O107  1  0.66892487  0.83651956  0.93203687  1
  O  O108  1  0.33107513  0.00318622  0.31796313  1
  O  O109  1  0.33107513  0.00318622  0.81796313  1
  O  O110  1  0.33107513  0.33651956  0.31796313  1
  O  O111  1  0.33107513  0.33651956  0.81796313  1
  O  O112  1  0.33107513  0.66985289  0.31796313  1
  O  O113  1  0.33107513  0.66985289  0.81796313  1
  O  O114  1  0.83107513  0.00318622  0.31796313  1
  O  O115  1  0.83107513  0.00318622  0.81796313  1
  O  O116  1  0.83107513  0.33651956  0.31796313  1
  O  O117  1  0.83107513  0.33651956  0.81796313  1
  O  O118  1  0.83107513  0.66985289  0.31796313  1
  O  O119  1  0.83107513  0.66985289  0.81796313  1
  O  O120  1  0.33107513  0.16348044  0.06796313  1
  O  O121  1  0.33107513  0.16348044  0.56796313  1
  O  O122  1  0.33107513  0.49681378  0.06796313  1
  O  O123  1  0.33107513  0.49681378  0.56796313  1
  O  O124  1  0.33107513  0.83014711  0.06796313  1
  O  O125  1  0.33107513  0.83014711  0.56796313  1
  O  O126  1  0.83107513  0.16348044  0.06796313  1
  O  O127  1  0.83107513  0.16348044  0.56796313  1
  O  O128  1  0.83107513  0.49681378  0.06796313  1
  O  O129  1  0.83107513  0.49681378  0.56796313  1
  O  O130  1  0.83107513  0.83014711  0.06796313  1
  O  O131  1  0.83107513  0.83014711  0.56796313  1
  O  O132  1  0.16892487  0.33014711  0.18203687  1
  O  O133  1  0.16892487  0.33014711  0.68203687  1
  O  O134  1  0.16892487  0.66348044  0.18203687  1
  O  O135  1  0.16892487  0.66348044  0.68203687  1
  O  O136  1  0.16892487  0.99681378  0.18203687  1
  O  O137  1  0.16892487  0.99681378  0.68203687  1
  O  O138  1  0.66892487  0.33014711  0.18203687  1
  O  O139  1  0.66892487  0.33014711  0.68203687  1
  O  O140  1  0.66892487  0.66348044  0.18203687  1
  O  O141  1  0.66892487  0.66348044  0.68203687  1
  O  O142  1  0.66892487  0.99681378  0.18203687  1
  O  O143  1  0.66892487  0.99681378  0.68203687  1
  O  O144  1  0.19134319  0.32874193  0.41639349  1
  O  O145  1  0.19134319  0.32874193  0.91639349  1
  O  O146  1  0.19134319  0.66207527  0.41639349  1
  O  O147  1  0.19134319  0.66207527  0.91639349  1
  O  O148  1  0.19134319  0.99540860  0.41639349  1
  O  O149  1  0.19134319  0.99540860  0.91639349  1
  O  O150  1  0.69134319  0.32874193  0.41639349  1
  O  O151  1  0.69134319  0.32874193  0.91639349  1
  O  O152  1  0.69134319  0.66207527  0.41639349  1
  O  O153  1  0.69134319  0.66207527  0.91639349  1
  O  O154  1  0.69134319  0.99540860  0.41639349  1
  O  O155  1  0.69134319  0.99540860  0.91639349  1
  O  O156  1  0.30865681  0.16207527  0.33360651  1
  O  O157  1  0.30865681  0.16207527  0.83360651  1
  O  O158  1  0.30865681  0.49540860  0.33360651  1
  O  O159  1  0.30865681  0.49540860  0.83360651  1
  O  O160  1  0.30865681  0.82874193  0.33360651  1
  O  O161  1  0.30865681  0.82874193  0.83360651  1
  O  O162  1  0.80865681  0.16207527  0.33360651  1
  O  O163  1  0.80865681  0.16207527  0.83360651  1
  O  O164  1  0.80865681  0.49540860  0.33360651  1
  O  O165  1  0.80865681  0.49540860  0.83360651  1
  O  O166  1  0.80865681  0.82874193  0.33360651  1
  O  O167  1  0.80865681  0.82874193  0.83360651  1
  O  O168  1  0.30865681  0.00459140  0.08360651  1
  O  O169  1  0.30865681  0.00459140  0.58360651  1
  O  O170  1  0.30865681  0.33792473  0.08360651  1
  O  O171  1  0.30865681  0.33792473  0.58360651  1
  O  O172  1  0.30865681  0.67125807  0.08360651  1
  O  O173  1  0.30865681  0.67125807  0.58360651  1
  O  O174  1  0.80865681  0.00459140  0.08360651  1
  O  O175  1  0.80865681  0.00459140  0.58360651  1
  O  O176  1  0.80865681  0.33792473  0.08360651  1
  O  O177  1  0.80865681  0.33792473  0.58360651  1
  O  O178  1  0.80865681  0.67125807  0.08360651  1
  O  O179  1  0.80865681  0.67125807  0.58360651  1
  O  O180  1  0.19134319  0.17125807  0.16639349  1
  O  O181  1  0.19134319  0.17125807  0.66639349  1
  O  O182  1  0.19134319  0.50459140  0.16639349  1
  O  O183  1  0.19134319  0.50459140  0.66639349  1
  O  O184  1  0.19134319  0.83792473  0.16639349  1
  O  O185  1  0.19134319  0.83792473  0.66639349  1
  O  O186  1  0.69134319  0.17125807  0.16639349  1
  O  O187  1  0.69134319  0.17125807  0.66639349  1
  O  O188  1  0.69134319  0.50459140  0.16639349  1
  O  O189  1  0.69134319  0.50459140  0.66639349  1
  O  O190  1  0.69134319  0.83792473  0.16639349  1
  O  O191  1  0.69134319  0.83792473  0.66639349  1
  O  O192  1  0.08387392  0.27939770  0.02654812  1
  O  O193  1  0.08387392  0.27939770  0.52654812  1
  O  O194  1  0.08387392  0.61273103  0.02654812  1
  O  O195  1  0.08387392  0.61273103  0.52654812  1
  O  O196  1  0.08387392  0.94606437  0.02654812  1
  O  O197  1  0.08387392  0.94606437  0.52654812  1
  O  O198  1  0.58387392  0.27939770  0.02654812  1
  O  O199  1  0.58387392  0.27939770  0.52654812  1
  O  O200  1  0.58387392  0.61273103  0.02654812  1
  O  O201  1  0.58387392  0.61273103  0.52654812  1
  O  O202  1  0.58387392  0.94606437  0.02654812  1
  O  O203  1  0.58387392  0.94606437  0.52654812  1
  O  O204  1  0.41612608  0.11273103  0.22345188  1
  O  O205  1  0.41612608  0.11273103  0.72345188  1
  O  O206  1  0.41612608  0.44606437  0.22345188  1
  O  O207  1  0.41612608  0.44606437  0.72345188  1
  O  O208  1  0.41612608  0.77939770  0.22345188  1
  O  O209  1  0.41612608  0.77939770  0.72345188  1
  O  O210  1  0.91612608  0.11273103  0.22345188  1
  O  O211  1  0.91612608  0.11273103  0.72345188  1
  O  O212  1  0.91612608  0.44606437  0.22345188  1
  O  O213  1  0.91612608  0.44606437  0.72345188  1
  O  O214  1  0.91612608  0.77939770  0.22345188  1
  O  O215  1  0.91612608  0.77939770  0.72345188  1
  O  O216  1  0.41612608  0.05393563  0.47345188  1
  O  O217  1  0.41612608  0.05393563  0.97345188  1
  O  O218  1  0.41612608  0.38726897  0.47345188  1
  O  O219  1  0.41612608  0.38726897  0.97345188  1
  O  O220  1  0.41612608  0.72060230  0.47345188  1
  O  O221  1  0.41612608  0.72060230  0.97345188  1
  O  O222  1  0.91612608  0.05393563  0.47345188  1
  O  O223  1  0.91612608  0.05393563  0.97345188  1
  O  O224  1  0.91612608  0.38726897  0.47345188  1
  O  O225  1  0.91612608  0.38726897  0.97345188  1
  O  O226  1  0.91612608  0.72060230  0.47345188  1
  O  O227  1  0.91612608  0.72060230  0.97345188  1
  O  O228  1  0.08387392  0.22060230  0.27654812  1
  O  O229  1  0.08387392  0.22060230  0.77654812  1
  O  O230  1  0.08387392  0.55393563  0.27654812  1
  O  O231  1  0.08387392  0.55393563  0.77654812  1
  O  O232  1  0.08387392  0.88726897  0.27654812  1
  O  O233  1  0.08387392  0.88726897  0.77654812  1
  O  O234  1  0.58387392  0.22060230  0.27654812  1
  O  O235  1  0.58387392  0.22060230  0.77654812  1
  O  O236  1  0.58387392  0.55393563  0.27654812  1
  O  O237  1  0.58387392  0.55393563  0.77654812  1
  O  O238  1  0.58387392  0.88726897  0.27654812  1
  O  O239  1  0.58387392  0.88726897  0.77654812  1
  O  O240  1  0.02738506  0.13808461  0.10312095  1
  O  O241  1  0.02738506  0.13808461  0.60312095  1
  O  O242  1  0.02738506  0.47141794  0.10312095  1
  O  O243  1  0.02738506  0.47141794  0.60312095  1
  O  O244  1  0.02738506  0.80475128  0.10312095  1
  O  O245  1  0.02738506  0.80475128  0.60312095  1
  O  O246  1  0.52738506  0.13808461  0.10312095  1
  O  O247  1  0.52738506  0.13808461  0.60312095  1
  O  O248  1  0.52738506  0.47141794  0.10312095  1
  O  O249  1  0.52738506  0.47141794  0.60312095  1
  O  O250  1  0.52738506  0.80475128  0.10312095  1
  O  O251  1  0.52738506  0.80475128  0.60312095  1
  O  O252  1  0.47261494  0.30475128  0.14687905  1
  O  O253  1  0.47261494  0.30475128  0.64687905  1
  O  O254  1  0.47261494  0.63808461  0.14687905  1
  O  O255  1  0.47261494  0.63808461  0.64687905  1
  O  O256  1  0.47261494  0.97141794  0.14687905  1
  O  O257  1  0.47261494  0.97141794  0.64687905  1
  O  O258  1  0.97261494  0.30475128  0.14687905  1
  O  O259  1  0.97261494  0.30475128  0.64687905  1
  O  O260  1  0.97261494  0.63808461  0.14687905  1
  O  O261  1  0.97261494  0.63808461  0.64687905  1
  O  O262  1  0.97261494  0.97141794  0.14687905  1
  O  O263  1  0.97261494  0.97141794  0.64687905  1
  O  O264  1  0.47261494  0.19524872  0.39687905  1
  O  O265  1  0.47261494  0.19524872  0.89687905  1
  O  O266  1  0.47261494  0.52858206  0.39687905  1
  O  O267  1  0.47261494  0.52858206  0.89687905  1
  O  O268  1  0.47261494  0.86191539  0.39687905  1
  O  O269  1  0.47261494  0.86191539  0.89687905  1
  O  O270  1  0.97261494  0.19524872  0.39687905  1
  O  O271  1  0.97261494  0.19524872  0.89687905  1
  O  O272  1  0.97261494  0.52858206  0.39687905  1
  O  O273  1  0.97261494  0.52858206  0.89687905  1
  O  O274  1  0.97261494  0.86191539  0.39687905  1
  O  O275  1  0.97261494  0.86191539  0.89687905  1
  O  O276  1  0.02738506  0.02858206  0.35312095  1
  O  O277  1  0.02738506  0.02858206  0.85312095  1
  O  O278  1  0.02738506  0.36191539  0.35312095  1
  O  O279  1  0.02738506  0.36191539  0.85312095  1
  O  O280  1  0.02738506  0.69524872  0.35312095  1
  O  O281  1  0.02738506  0.69524872  0.85312095  1
  O  O282  1  0.52738506  0.02858206  0.35312095  1
  O  O283  1  0.52738506  0.02858206  0.85312095  1
  O  O284  1  0.52738506  0.36191539  0.35312095  1
  O  O285  1  0.52738506  0.36191539  0.85312095  1
  O  O286  1  0.52738506  0.69524872  0.35312095  1
  O  O287  1  0.52738506  0.69524872  0.85312095  1
