# generated using pymatgen
data_Cs6Ge2O7
_symmetry_space_group_name_H-M   'P 1'
_cell_length_a   21.46010247
_cell_length_b   19.57199414
_cell_length_c   24.07363465
_cell_angle_alpha   90.00000000
_cell_angle_beta   125.12865677
_cell_angle_gamma   90.00000000
_symmetry_Int_Tables_number   1
_chemical_formula_structural   Cs6Ge2O7
_chemical_formula_sum   'Cs144 Ge48 O168'
_cell_volume   8269.67755629
_cell_formula_units_Z   24
loop_
 _symmetry_equiv_pos_site_id
 _symmetry_equiv_pos_as_xyz
  1  'x, y, z'
loop_
 _atom_site_type_symbol
 _atom_site_label
 _atom_site_symmetry_multiplicity
 _atom_site_fract_x
 _atom_site_fract_y
 _atom_site_fract_z
 _atom_site_occupancy
  Cs  Cs0  1  0.20243533  0.39138856  0.36146229  1
  Cs  Cs1  1  0.20243533  0.39138856  0.86146229  1
  Cs  Cs2  1  0.20243533  0.89138856  0.36146229  1
  Cs  Cs3  1  0.20243533  0.89138856  0.86146229  1
  Cs  Cs4  1  0.53576867  0.39138856  0.36146229  1
  Cs  Cs5  1  0.53576867  0.39138856  0.86146229  1
  Cs  Cs6  1  0.53576867  0.89138856  0.36146229  1
  Cs  Cs7  1  0.53576867  0.89138856  0.86146229  1
  Cs  Cs8  1  0.86910200  0.39138856  0.36146229  1
  Cs  Cs9  1  0.86910200  0.39138856  0.86146229  1
  Cs  Cs10  1  0.86910200  0.89138856  0.36146229  1
  Cs  Cs11  1  0.86910200  0.89138856  0.86146229  1
  Cs  Cs12  1  0.32256301  0.32289779  0.04317444  1
  Cs  Cs13  1  0.32256301  0.32289779  0.54317444  1
  Cs  Cs14  1  0.32256301  0.82289779  0.04317444  1
  Cs  Cs15  1  0.32256301  0.82289779  0.54317444  1
  Cs  Cs16  1  0.65589635  0.32289779  0.04317444  1
  Cs  Cs17  1  0.65589635  0.32289779  0.54317444  1
  Cs  Cs18  1  0.65589635  0.82289779  0.04317444  1
  Cs  Cs19  1  0.65589635  0.82289779  0.54317444  1
  Cs  Cs20  1  0.98922968  0.32289779  0.04317444  1
  Cs  Cs21  1  0.98922968  0.32289779  0.54317444  1
  Cs  Cs22  1  0.98922968  0.82289779  0.04317444  1
  Cs  Cs23  1  0.98922968  0.82289779  0.54317444  1
  Cs  Cs24  1  0.06938747  0.26313056  0.22819593  1
  Cs  Cs25  1  0.06938747  0.26313056  0.72819593  1
  Cs  Cs26  1  0.06938747  0.76313056  0.22819593  1
  Cs  Cs27  1  0.06938747  0.76313056  0.72819593  1
  Cs  Cs28  1  0.40272081  0.26313056  0.22819593  1
  Cs  Cs29  1  0.40272081  0.26313056  0.72819593  1
  Cs  Cs30  1  0.40272081  0.76313056  0.22819593  1
  Cs  Cs31  1  0.40272081  0.76313056  0.72819593  1
  Cs  Cs32  1  0.73605414  0.26313056  0.22819593  1
  Cs  Cs33  1  0.73605414  0.26313056  0.72819593  1
  Cs  Cs34  1  0.73605414  0.76313056  0.22819593  1
  Cs  Cs35  1  0.73605414  0.76313056  0.72819593  1
  Cs  Cs36  1  0.26394586  0.01313056  0.02180407  1
  Cs  Cs37  1  0.26394586  0.01313056  0.52180407  1
  Cs  Cs38  1  0.26394586  0.51313056  0.02180407  1
  Cs  Cs39  1  0.26394586  0.51313056  0.52180407  1
  Cs  Cs40  1  0.59727919  0.01313056  0.02180407  1
  Cs  Cs41  1  0.59727919  0.01313056  0.52180407  1
  Cs  Cs42  1  0.59727919  0.51313056  0.02180407  1
  Cs  Cs43  1  0.59727919  0.51313056  0.52180407  1
  Cs  Cs44  1  0.93061253  0.01313056  0.02180407  1
  Cs  Cs45  1  0.93061253  0.01313056  0.52180407  1
  Cs  Cs46  1  0.93061253  0.51313056  0.02180407  1
  Cs  Cs47  1  0.93061253  0.51313056  0.52180407  1
  Cs  Cs48  1  0.13089800  0.14138856  0.38853771  1
  Cs  Cs49  1  0.13089800  0.14138856  0.88853771  1
  Cs  Cs50  1  0.13089800  0.64138856  0.38853771  1
  Cs  Cs51  1  0.13089800  0.64138856  0.88853771  1
  Cs  Cs52  1  0.46423133  0.14138856  0.38853771  1
  Cs  Cs53  1  0.46423133  0.14138856  0.88853771  1
  Cs  Cs54  1  0.46423133  0.64138856  0.38853771  1
  Cs  Cs55  1  0.46423133  0.64138856  0.88853771  1
  Cs  Cs56  1  0.79756467  0.14138856  0.38853771  1
  Cs  Cs57  1  0.79756467  0.14138856  0.88853771  1
  Cs  Cs58  1  0.79756467  0.64138856  0.38853771  1
  Cs  Cs59  1  0.79756467  0.64138856  0.88853771  1
  Cs  Cs60  1  0.01077032  0.07289779  0.20682556  1
  Cs  Cs61  1  0.01077032  0.07289779  0.70682556  1
  Cs  Cs62  1  0.01077032  0.57289779  0.20682556  1
  Cs  Cs63  1  0.01077032  0.57289779  0.70682556  1
  Cs  Cs64  1  0.34410365  0.07289779  0.20682556  1
  Cs  Cs65  1  0.34410365  0.07289779  0.70682556  1
  Cs  Cs66  1  0.34410365  0.57289779  0.20682556  1
  Cs  Cs67  1  0.34410365  0.57289779  0.70682556  1
  Cs  Cs68  1  0.67743699  0.07289779  0.20682556  1
  Cs  Cs69  1  0.67743699  0.07289779  0.70682556  1
  Cs  Cs70  1  0.67743699  0.57289779  0.20682556  1
  Cs  Cs71  1  0.67743699  0.57289779  0.70682556  1
  Cs  Cs72  1  0.32256301  0.42710221  0.29317444  1
  Cs  Cs73  1  0.32256301  0.42710221  0.79317444  1
  Cs  Cs74  1  0.32256301  0.92710221  0.29317444  1
  Cs  Cs75  1  0.32256301  0.92710221  0.79317444  1
  Cs  Cs76  1  0.65589635  0.42710221  0.29317444  1
  Cs  Cs77  1  0.65589635  0.42710221  0.79317444  1
  Cs  Cs78  1  0.65589635  0.92710221  0.29317444  1
  Cs  Cs79  1  0.65589635  0.92710221  0.79317444  1
  Cs  Cs80  1  0.98922968  0.42710221  0.29317444  1
  Cs  Cs81  1  0.98922968  0.42710221  0.79317444  1
  Cs  Cs82  1  0.98922968  0.92710221  0.29317444  1
  Cs  Cs83  1  0.98922968  0.92710221  0.79317444  1
  Cs  Cs84  1  0.20243533  0.35861144  0.11146229  1
  Cs  Cs85  1  0.20243533  0.35861144  0.61146229  1
  Cs  Cs86  1  0.20243533  0.85861144  0.11146229  1
  Cs  Cs87  1  0.20243533  0.85861144  0.61146229  1
  Cs  Cs88  1  0.53576867  0.35861144  0.11146229  1
  Cs  Cs89  1  0.53576867  0.35861144  0.61146229  1
  Cs  Cs90  1  0.53576867  0.85861144  0.11146229  1
  Cs  Cs91  1  0.53576867  0.85861144  0.61146229  1
  Cs  Cs92  1  0.86910200  0.35861144  0.11146229  1
  Cs  Cs93  1  0.86910200  0.35861144  0.61146229  1
  Cs  Cs94  1  0.86910200  0.85861144  0.11146229  1
  Cs  Cs95  1  0.86910200  0.85861144  0.61146229  1
  Cs  Cs96  1  0.06938747  0.48686944  0.47819593  1
  Cs  Cs97  1  0.06938747  0.48686944  0.97819593  1
  Cs  Cs98  1  0.06938747  0.98686944  0.47819593  1
  Cs  Cs99  1  0.06938747  0.98686944  0.97819593  1
  Cs  Cs100  1  0.40272081  0.48686944  0.47819593  1
  Cs  Cs101  1  0.40272081  0.48686944  0.97819593  1
  Cs  Cs102  1  0.40272081  0.98686944  0.47819593  1
  Cs  Cs103  1  0.40272081  0.98686944  0.97819593  1
  Cs  Cs104  1  0.73605414  0.48686944  0.47819593  1
  Cs  Cs105  1  0.73605414  0.48686944  0.97819593  1
  Cs  Cs106  1  0.73605414  0.98686944  0.47819593  1
  Cs  Cs107  1  0.73605414  0.98686944  0.97819593  1
  Cs  Cs108  1  0.26394586  0.23686944  0.27180407  1
  Cs  Cs109  1  0.26394586  0.23686944  0.77180407  1
  Cs  Cs110  1  0.26394586  0.73686944  0.27180407  1
  Cs  Cs111  1  0.26394586  0.73686944  0.77180407  1
  Cs  Cs112  1  0.59727919  0.23686944  0.27180407  1
  Cs  Cs113  1  0.59727919  0.23686944  0.77180407  1
  Cs  Cs114  1  0.59727919  0.73686944  0.27180407  1
  Cs  Cs115  1  0.59727919  0.73686944  0.77180407  1
  Cs  Cs116  1  0.93061253  0.23686944  0.27180407  1
  Cs  Cs117  1  0.93061253  0.23686944  0.77180407  1
  Cs  Cs118  1  0.93061253  0.73686944  0.27180407  1
  Cs  Cs119  1  0.93061253  0.73686944  0.77180407  1
  Cs  Cs120  1  0.01077032  0.17710221  0.45682556  1
  Cs  Cs121  1  0.01077032  0.17710221  0.95682556  1
  Cs  Cs122  1  0.01077032  0.67710221  0.45682556  1
  Cs  Cs123  1  0.01077032  0.67710221  0.95682556  1
  Cs  Cs124  1  0.34410365  0.17710221  0.45682556  1
  Cs  Cs125  1  0.34410365  0.17710221  0.95682556  1
  Cs  Cs126  1  0.34410365  0.67710221  0.45682556  1
  Cs  Cs127  1  0.34410365  0.67710221  0.95682556  1
  Cs  Cs128  1  0.67743699  0.17710221  0.45682556  1
  Cs  Cs129  1  0.67743699  0.17710221  0.95682556  1
  Cs  Cs130  1  0.67743699  0.67710221  0.45682556  1
  Cs  Cs131  1  0.67743699  0.67710221  0.95682556  1
  Cs  Cs132  1  0.13089800  0.10861144  0.13853771  1
  Cs  Cs133  1  0.13089800  0.10861144  0.63853771  1
  Cs  Cs134  1  0.13089800  0.60861144  0.13853771  1
  Cs  Cs135  1  0.13089800  0.60861144  0.63853771  1
  Cs  Cs136  1  0.46423133  0.10861144  0.13853771  1
  Cs  Cs137  1  0.46423133  0.10861144  0.63853771  1
  Cs  Cs138  1  0.46423133  0.60861144  0.13853771  1
  Cs  Cs139  1  0.46423133  0.60861144  0.63853771  1
  Cs  Cs140  1  0.79756467  0.10861144  0.13853771  1
  Cs  Cs141  1  0.79756467  0.10861144  0.63853771  1
  Cs  Cs142  1  0.79756467  0.60861144  0.13853771  1
  Cs  Cs143  1  0.79756467  0.60861144  0.63853771  1
  Ge  Ge144  1  0.10873611  0.43212239  0.18673297  1
  Ge  Ge145  1  0.10873611  0.43212239  0.68673297  1
  Ge  Ge146  1  0.10873611  0.93212239  0.18673297  1
  Ge  Ge147  1  0.10873611  0.93212239  0.68673297  1
  Ge  Ge148  1  0.44206944  0.43212239  0.18673297  1
  Ge  Ge149  1  0.44206944  0.43212239  0.68673297  1
  Ge  Ge150  1  0.44206944  0.93212239  0.18673297  1
  Ge  Ge151  1  0.44206944  0.93212239  0.68673297  1
  Ge  Ge152  1  0.77540278  0.43212239  0.18673297  1
  Ge  Ge153  1  0.77540278  0.43212239  0.68673297  1
  Ge  Ge154  1  0.77540278  0.93212239  0.18673297  1
  Ge  Ge155  1  0.77540278  0.93212239  0.68673297  1
  Ge  Ge156  1  0.22459722  0.18212239  0.06326703  1
  Ge  Ge157  1  0.22459722  0.18212239  0.56326703  1
  Ge  Ge158  1  0.22459722  0.68212239  0.06326703  1
  Ge  Ge159  1  0.22459722  0.68212239  0.56326703  1
  Ge  Ge160  1  0.55793056  0.18212239  0.06326703  1
  Ge  Ge161  1  0.55793056  0.18212239  0.56326703  1
  Ge  Ge162  1  0.55793056  0.68212239  0.06326703  1
  Ge  Ge163  1  0.55793056  0.68212239  0.56326703  1
  Ge  Ge164  1  0.89126389  0.18212239  0.06326703  1
  Ge  Ge165  1  0.89126389  0.18212239  0.56326703  1
  Ge  Ge166  1  0.89126389  0.68212239  0.06326703  1
  Ge  Ge167  1  0.89126389  0.68212239  0.56326703  1
  Ge  Ge168  1  0.10873611  0.31787761  0.43673297  1
  Ge  Ge169  1  0.10873611  0.31787761  0.93673297  1
  Ge  Ge170  1  0.10873611  0.81787761  0.43673297  1
  Ge  Ge171  1  0.10873611  0.81787761  0.93673297  1
  Ge  Ge172  1  0.44206944  0.31787761  0.43673297  1
  Ge  Ge173  1  0.44206944  0.31787761  0.93673297  1
  Ge  Ge174  1  0.44206944  0.81787761  0.43673297  1
  Ge  Ge175  1  0.44206944  0.81787761  0.93673297  1
  Ge  Ge176  1  0.77540278  0.31787761  0.43673297  1
  Ge  Ge177  1  0.77540278  0.31787761  0.93673297  1
  Ge  Ge178  1  0.77540278  0.81787761  0.43673297  1
  Ge  Ge179  1  0.77540278  0.81787761  0.93673297  1
  Ge  Ge180  1  0.22459722  0.06787761  0.31326703  1
  Ge  Ge181  1  0.22459722  0.06787761  0.81326703  1
  Ge  Ge182  1  0.22459722  0.56787761  0.31326703  1
  Ge  Ge183  1  0.22459722  0.56787761  0.81326703  1
  Ge  Ge184  1  0.55793056  0.06787761  0.31326703  1
  Ge  Ge185  1  0.55793056  0.06787761  0.81326703  1
  Ge  Ge186  1  0.55793056  0.56787761  0.31326703  1
  Ge  Ge187  1  0.55793056  0.56787761  0.81326703  1
  Ge  Ge188  1  0.89126389  0.06787761  0.31326703  1
  Ge  Ge189  1  0.89126389  0.06787761  0.81326703  1
  Ge  Ge190  1  0.89126389  0.56787761  0.31326703  1
  Ge  Ge191  1  0.89126389  0.56787761  0.81326703  1
  O  O192  1  0.16666667  0.00000000  0.25000000  1
  O  O193  1  0.16666667  0.00000000  0.75000000  1
  O  O194  1  0.16666667  0.50000000  0.25000000  1
  O  O195  1  0.16666667  0.50000000  0.75000000  1
  O  O196  1  0.50000000  0.00000000  0.25000000  1
  O  O197  1  0.50000000  0.00000000  0.75000000  1
  O  O198  1  0.50000000  0.50000000  0.25000000  1
  O  O199  1  0.50000000  0.50000000  0.75000000  1
  O  O200  1  0.83333333  0.00000000  0.25000000  1
  O  O201  1  0.83333333  0.00000000  0.75000000  1
  O  O202  1  0.83333333  0.50000000  0.25000000  1
  O  O203  1  0.83333333  0.50000000  0.75000000  1
  O  O204  1  0.24562367  0.04028022  0.39298819  1
  O  O205  1  0.24562367  0.04028022  0.89298819  1
  O  O206  1  0.24562367  0.54028022  0.39298819  1
  O  O207  1  0.24562367  0.54028022  0.89298819  1
  O  O208  1  0.57895700  0.04028022  0.39298819  1
  O  O209  1  0.57895700  0.04028022  0.89298819  1
  O  O210  1  0.57895700  0.54028022  0.39298819  1
  O  O211  1  0.57895700  0.54028022  0.89298819  1
  O  O212  1  0.91229034  0.04028022  0.39298819  1
  O  O213  1  0.91229034  0.04028022  0.89298819  1
  O  O214  1  0.91229034  0.54028022  0.39298819  1
  O  O215  1  0.91229034  0.54028022  0.89298819  1
  O  O216  1  0.16453371  0.14169102  0.28235391  1
  O  O217  1  0.16453371  0.14169102  0.78235391  1
  O  O218  1  0.16453371  0.64169102  0.28235391  1
  O  O219  1  0.16453371  0.64169102  0.78235391  1
  O  O220  1  0.49786704  0.14169102  0.28235391  1
  O  O221  1  0.49786704  0.14169102  0.78235391  1
  O  O222  1  0.49786704  0.64169102  0.28235391  1
  O  O223  1  0.49786704  0.64169102  0.78235391  1
  O  O224  1  0.83120038  0.14169102  0.28235391  1
  O  O225  1  0.83120038  0.14169102  0.78235391  1
  O  O226  1  0.83120038  0.64169102  0.28235391  1
  O  O227  1  0.83120038  0.64169102  0.78235391  1
  O  O228  1  0.30796480  0.17070376  0.06430729  1
  O  O229  1  0.30796480  0.17070376  0.56430729  1
  O  O230  1  0.30796480  0.67070376  0.06430729  1
  O  O231  1  0.30796480  0.67070376  0.56430729  1
  O  O232  1  0.64129813  0.17070376  0.06430729  1
  O  O233  1  0.64129813  0.17070376  0.56430729  1
  O  O234  1  0.64129813  0.67070376  0.06430729  1
  O  O235  1  0.64129813  0.67070376  0.56430729  1
  O  O236  1  0.97463147  0.17070376  0.06430729  1
  O  O237  1  0.97463147  0.17070376  0.56430729  1
  O  O238  1  0.97463147  0.67070376  0.06430729  1
  O  O239  1  0.97463147  0.67070376  0.56430729  1
  O  O240  1  0.02536853  0.42070376  0.18569271  1
  O  O241  1  0.02536853  0.42070376  0.68569271  1
  O  O242  1  0.02536853  0.92070376  0.18569271  1
  O  O243  1  0.02536853  0.92070376  0.68569271  1
  O  O244  1  0.35870187  0.42070376  0.18569271  1
  O  O245  1  0.35870187  0.42070376  0.68569271  1
  O  O246  1  0.35870187  0.92070376  0.18569271  1
  O  O247  1  0.35870187  0.92070376  0.68569271  1
  O  O248  1  0.69203520  0.42070376  0.18569271  1
  O  O249  1  0.69203520  0.42070376  0.68569271  1
  O  O250  1  0.69203520  0.92070376  0.18569271  1
  O  O251  1  0.69203520  0.92070376  0.68569271  1
  O  O252  1  0.16879962  0.39169102  0.46764609  1
  O  O253  1  0.16879962  0.39169102  0.96764609  1
  O  O254  1  0.16879962  0.89169102  0.46764609  1
  O  O255  1  0.16879962  0.89169102  0.96764609  1
  O  O256  1  0.50213296  0.39169102  0.46764609  1
  O  O257  1  0.50213296  0.39169102  0.96764609  1
  O  O258  1  0.50213296  0.89169102  0.46764609  1
  O  O259  1  0.50213296  0.89169102  0.96764609  1
  O  O260  1  0.83546629  0.39169102  0.46764609  1
  O  O261  1  0.83546629  0.39169102  0.96764609  1
  O  O262  1  0.83546629  0.89169102  0.46764609  1
  O  O263  1  0.83546629  0.89169102  0.96764609  1
  O  O264  1  0.08770966  0.29028022  0.35701181  1
  O  O265  1  0.08770966  0.29028022  0.85701181  1
  O  O266  1  0.08770966  0.79028022  0.35701181  1
  O  O267  1  0.08770966  0.79028022  0.85701181  1
  O  O268  1  0.42104300  0.29028022  0.35701181  1
  O  O269  1  0.42104300  0.29028022  0.85701181  1
  O  O270  1  0.42104300  0.79028022  0.35701181  1
  O  O271  1  0.42104300  0.79028022  0.85701181  1
  O  O272  1  0.75437633  0.29028022  0.35701181  1
  O  O273  1  0.75437633  0.29028022  0.85701181  1
  O  O274  1  0.75437633  0.79028022  0.35701181  1
  O  O275  1  0.75437633  0.79028022  0.85701181  1
  O  O276  1  0.16666667  0.25000000  0.00000000  1
  O  O277  1  0.16666667  0.25000000  0.50000000  1
  O  O278  1  0.16666667  0.75000000  0.00000000  1
  O  O279  1  0.16666667  0.75000000  0.50000000  1
  O  O280  1  0.50000000  0.25000000  0.00000000  1
  O  O281  1  0.50000000  0.25000000  0.50000000  1
  O  O282  1  0.50000000  0.75000000  0.00000000  1
  O  O283  1  0.50000000  0.75000000  0.50000000  1
  O  O284  1  0.83333333  0.25000000  0.00000000  1
  O  O285  1  0.83333333  0.25000000  0.50000000  1
  O  O286  1  0.83333333  0.75000000  0.00000000  1
  O  O287  1  0.83333333  0.75000000  0.50000000  1
  O  O288  1  0.24562367  0.20971978  0.14298819  1
  O  O289  1  0.24562367  0.20971978  0.64298819  1
  O  O290  1  0.24562367  0.70971978  0.14298819  1
  O  O291  1  0.24562367  0.70971978  0.64298819  1
  O  O292  1  0.57895700  0.20971978  0.14298819  1
  O  O293  1  0.57895700  0.20971978  0.64298819  1
  O  O294  1  0.57895700  0.70971978  0.14298819  1
  O  O295  1  0.57895700  0.70971978  0.64298819  1
  O  O296  1  0.91229034  0.20971978  0.14298819  1
  O  O297  1  0.91229034  0.20971978  0.64298819  1
  O  O298  1  0.91229034  0.70971978  0.14298819  1
  O  O299  1  0.91229034  0.70971978  0.64298819  1
  O  O300  1  0.16453371  0.10830898  0.03235391  1
  O  O301  1  0.16453371  0.10830898  0.53235391  1
  O  O302  1  0.16453371  0.60830898  0.03235391  1
  O  O303  1  0.16453371  0.60830898  0.53235391  1
  O  O304  1  0.49786704  0.10830898  0.03235391  1
  O  O305  1  0.49786704  0.10830898  0.53235391  1
  O  O306  1  0.49786704  0.60830898  0.03235391  1
  O  O307  1  0.49786704  0.60830898  0.53235391  1
  O  O308  1  0.83120038  0.10830898  0.03235391  1
  O  O309  1  0.83120038  0.10830898  0.53235391  1
  O  O310  1  0.83120038  0.60830898  0.03235391  1
  O  O311  1  0.83120038  0.60830898  0.53235391  1
  O  O312  1  0.30796480  0.07929624  0.31430729  1
  O  O313  1  0.30796480  0.07929624  0.81430729  1
  O  O314  1  0.30796480  0.57929624  0.31430729  1
  O  O315  1  0.30796480  0.57929624  0.81430729  1
  O  O316  1  0.64129813  0.07929624  0.31430729  1
  O  O317  1  0.64129813  0.07929624  0.81430729  1
  O  O318  1  0.64129813  0.57929624  0.31430729  1
  O  O319  1  0.64129813  0.57929624  0.81430729  1
  O  O320  1  0.97463147  0.07929624  0.31430729  1
  O  O321  1  0.97463147  0.07929624  0.81430729  1
  O  O322  1  0.97463147  0.57929624  0.31430729  1
  O  O323  1  0.97463147  0.57929624  0.81430729  1
  O  O324  1  0.02536853  0.32929624  0.43569271  1
  O  O325  1  0.02536853  0.32929624  0.93569271  1
  O  O326  1  0.02536853  0.82929624  0.43569271  1
  O  O327  1  0.02536853  0.82929624  0.93569271  1
  O  O328  1  0.35870187  0.32929624  0.43569271  1
  O  O329  1  0.35870187  0.32929624  0.93569271  1
  O  O330  1  0.35870187  0.82929624  0.43569271  1
  O  O331  1  0.35870187  0.82929624  0.93569271  1
  O  O332  1  0.69203520  0.32929624  0.43569271  1
  O  O333  1  0.69203520  0.32929624  0.93569271  1
  O  O334  1  0.69203520  0.82929624  0.43569271  1
  O  O335  1  0.69203520  0.82929624  0.93569271  1
  O  O336  1  0.16879962  0.35830898  0.21764609  1
  O  O337  1  0.16879962  0.35830898  0.71764609  1
  O  O338  1  0.16879962  0.85830898  0.21764609  1
  O  O339  1  0.16879962  0.85830898  0.71764609  1
  O  O340  1  0.50213296  0.35830898  0.21764609  1
  O  O341  1  0.50213296  0.35830898  0.71764609  1
  O  O342  1  0.50213296  0.85830898  0.21764609  1
  O  O343  1  0.50213296  0.85830898  0.71764609  1
  O  O344  1  0.83546629  0.35830898  0.21764609  1
  O  O345  1  0.83546629  0.35830898  0.71764609  1
  O  O346  1  0.83546629  0.85830898  0.21764609  1
  O  O347  1  0.83546629  0.85830898  0.71764609  1
  O  O348  1  0.08770966  0.45971978  0.10701181  1
  O  O349  1  0.08770966  0.45971978  0.60701181  1
  O  O350  1  0.08770966  0.95971978  0.10701181  1
  O  O351  1  0.08770966  0.95971978  0.60701181  1
  O  O352  1  0.42104300  0.45971978  0.10701181  1
  O  O353  1  0.42104300  0.45971978  0.60701181  1
  O  O354  1  0.42104300  0.95971978  0.10701181  1
  O  O355  1  0.42104300  0.95971978  0.60701181  1
  O  O356  1  0.75437633  0.45971978  0.10701181  1
  O  O357  1  0.75437633  0.45971978  0.60701181  1
  O  O358  1  0.75437633  0.95971978  0.10701181  1
  O  O359  1  0.75437633  0.95971978  0.60701181  1
