# generated using pymatgen
data_TiTl2O3
_symmetry_space_group_name_H-M   'P 1'
_cell_length_a   12.39603140
_cell_length_b   11.41675078
_cell_length_c   9.58727398
_cell_angle_alpha   90.00000000
_cell_angle_beta   90.00000000
_cell_angle_gamma   90.00000000
_symmetry_Int_Tables_number   1
_chemical_formula_structural   TiTl2O3
_chemical_formula_sum   'Ti12 Tl24 O36'
_cell_volume   1356.81403482
_cell_formula_units_Z   12
loop_
 _symmetry_equiv_pos_site_id
 _symmetry_equiv_pos_as_xyz
  1  'x, y, z'
loop_
 _atom_site_type_symbol
 _atom_site_label
 _atom_site_symmetry_multiplicity
 _atom_site_fract_x
 _atom_site_fract_y
 _atom_site_fract_z
 _atom_site_occupancy
  Ti  Ti0  1  0.90435443  0.25000000  0.45875924  1
  Ti  Ti1  1  0.90435443  0.58333333  0.45875924  1
  Ti  Ti2  1  0.90435443  0.91666667  0.45875924  1
  Ti  Ti3  1  0.59564557  0.08333333  0.95875924  1
  Ti  Ti4  1  0.59564557  0.41666667  0.95875924  1
  Ti  Ti5  1  0.59564557  0.75000000  0.95875924  1
  Ti  Ti6  1  0.09564557  0.08333333  0.54124076  1
  Ti  Ti7  1  0.09564557  0.41666667  0.54124076  1
  Ti  Ti8  1  0.09564557  0.75000000  0.54124076  1
  Ti  Ti9  1  0.40435443  0.25000000  0.04124076  1
  Ti  Ti10  1  0.40435443  0.58333333  0.04124076  1
  Ti  Ti11  1  0.40435443  0.91666667  0.04124076  1
  Tl  Tl12  1  0.34376603  0.08333333  0.74521569  1
  Tl  Tl13  1  0.34376603  0.41666667  0.74521569  1
  Tl  Tl14  1  0.34376603  0.75000000  0.74521569  1
  Tl  Tl15  1  0.84376603  0.08333333  0.75478431  1
  Tl  Tl16  1  0.84376603  0.41666667  0.75478431  1
  Tl  Tl17  1  0.84376603  0.75000000  0.75478431  1
  Tl  Tl18  1  0.15623397  0.25000000  0.24521569  1
  Tl  Tl19  1  0.15623397  0.58333333  0.24521569  1
  Tl  Tl20  1  0.15623397  0.91666667  0.24521569  1
  Tl  Tl21  1  0.65623397  0.25000000  0.25478431  1
  Tl  Tl22  1  0.65623397  0.58333333  0.25478431  1
  Tl  Tl23  1  0.65623397  0.91666667  0.25478431  1
  Tl  Tl24  1  0.40575585  0.08333333  0.37110444  1
  Tl  Tl25  1  0.40575585  0.41666667  0.37110444  1
  Tl  Tl26  1  0.40575585  0.75000000  0.37110444  1
  Tl  Tl27  1  0.59424415  0.25000000  0.62889556  1
  Tl  Tl28  1  0.59424415  0.58333333  0.62889556  1
  Tl  Tl29  1  0.59424415  0.91666667  0.62889556  1
  Tl  Tl30  1  0.09424415  0.25000000  0.87110444  1
  Tl  Tl31  1  0.09424415  0.58333333  0.87110444  1
  Tl  Tl32  1  0.09424415  0.91666667  0.87110444  1
  Tl  Tl33  1  0.90575585  0.08333333  0.12889556  1
  Tl  Tl34  1  0.90575585  0.41666667  0.12889556  1
  Tl  Tl35  1  0.90575585  0.75000000  0.12889556  1
  O  O36  1  0.44581900  0.08333333  0.04191413  1
  O  O37  1  0.44581900  0.41666667  0.04191413  1
  O  O38  1  0.44581900  0.75000000  0.04191413  1
  O  O39  1  0.55418100  0.25000000  0.95808587  1
  O  O40  1  0.55418100  0.58333333  0.95808587  1
  O  O41  1  0.55418100  0.91666667  0.95808587  1
  O  O42  1  0.05418100  0.25000000  0.54191413  1
  O  O43  1  0.05418100  0.58333333  0.54191413  1
  O  O44  1  0.05418100  0.91666667  0.54191413  1
  O  O45  1  0.94581900  0.08333333  0.45808587  1
  O  O46  1  0.94581900  0.41666667  0.45808587  1
  O  O47  1  0.94581900  0.75000000  0.45808587  1
  O  O48  1  0.20260959  0.08333333  0.41351663  1
  O  O49  1  0.20260959  0.41666667  0.41351663  1
  O  O50  1  0.20260959  0.75000000  0.41351663  1
  O  O51  1  0.79739041  0.25000000  0.58648337  1
  O  O52  1  0.79739041  0.58333333  0.58648337  1
  O  O53  1  0.79739041  0.91666667  0.58648337  1
  O  O54  1  0.29739041  0.25000000  0.91351663  1
  O  O55  1  0.29739041  0.58333333  0.91351663  1
  O  O56  1  0.29739041  0.91666667  0.91351663  1
  O  O57  1  0.84929722  0.25000000  0.28079969  1
  O  O58  1  0.84929722  0.58333333  0.28079969  1
  O  O59  1  0.84929722  0.91666667  0.28079969  1
  O  O60  1  0.34929722  0.25000000  0.21920031  1
  O  O61  1  0.34929722  0.58333333  0.21920031  1
  O  O62  1  0.34929722  0.91666667  0.21920031  1
  O  O63  1  0.65070278  0.08333333  0.78079969  1
  O  O64  1  0.65070278  0.41666667  0.78079969  1
  O  O65  1  0.65070278  0.75000000  0.78079969  1
  O  O66  1  0.15070278  0.08333333  0.71920031  1
  O  O67  1  0.15070278  0.41666667  0.71920031  1
  O  O68  1  0.15070278  0.75000000  0.71920031  1
  O  O69  1  0.70260959  0.08333333  0.08648337  1
  O  O70  1  0.70260959  0.41666667  0.08648337  1
  O  O71  1  0.70260959  0.75000000  0.08648337  1
