# generated using pymatgen
data_Cs3AlGe2O7
_symmetry_space_group_name_H-M   'P 1'
_cell_length_a   19.30174938
_cell_length_b   17.18972217
_cell_length_c   15.36567651
_cell_angle_alpha   90.00000000
_cell_angle_beta   126.87589478
_cell_angle_gamma   90.00000000
_symmetry_Int_Tables_number   1
_chemical_formula_structural   Cs3AlGe2O7
_chemical_formula_sum   'Cs48 Al16 Ge32 O112'
_cell_volume   4078.24305873
_cell_formula_units_Z   16
loop_
 _symmetry_equiv_pos_site_id
 _symmetry_equiv_pos_as_xyz
  1  'x, y, z'
loop_
 _atom_site_type_symbol
 _atom_site_label
 _atom_site_symmetry_multiplicity
 _atom_site_fract_x
 _atom_site_fract_y
 _atom_site_fract_z
 _atom_site_occupancy
  Cs  Cs0  1  0.10701359  -0.19574484  0.11783513  1
  Cs  Cs1  1  0.10701359  -0.19574484  0.61783513  1
  Cs  Cs2  1  0.60701359  -0.19574484  0.11783513  1
  Cs  Cs3  1  0.60701359  -0.19574484  0.61783513  1
  Cs  Cs4  1  0.35701359  0.30425516  0.11783513  1
  Cs  Cs5  1  0.35701359  0.30425516  0.61783513  1
  Cs  Cs6  1  0.85701359  0.30425516  0.11783513  1
  Cs  Cs7  1  0.85701359  0.30425516  0.61783513  1
  Cs  Cs8  1  0.25000000  -0.48834678  0.12500000  1
  Cs  Cs9  1  0.25000000  -0.48834678  0.62500000  1
  Cs  Cs10  1  0.75000000  -0.48834678  0.12500000  1
  Cs  Cs11  1  0.75000000  -0.48834678  0.62500000  1
  Cs  Cs12  1  0.50000000  0.01165322  0.12500000  1
  Cs  Cs13  1  0.50000000  0.01165322  0.62500000  1
  Cs  Cs14  1  1.00000000  0.01165322  0.12500000  1
  Cs  Cs15  1  1.00000000  0.01165322  0.62500000  1
  Cs  Cs16  1  0.10701359  0.19574484  0.36783513  1
  Cs  Cs17  1  0.10701359  0.19574484  0.86783513  1
  Cs  Cs18  1  0.60701359  0.19574484  0.36783513  1
  Cs  Cs19  1  0.60701359  0.19574484  0.86783513  1
  Cs  Cs20  1  0.35701359  0.69574484  0.36783513  1
  Cs  Cs21  1  0.35701359  0.69574484  0.86783513  1
  Cs  Cs22  1  0.85701359  0.69574484  0.36783513  1
  Cs  Cs23  1  0.85701359  0.69574484  0.86783513  1
  Cs  Cs24  1  0.25000000  0.48834678  0.37500000  1
  Cs  Cs25  1  0.25000000  0.48834678  0.87500000  1
  Cs  Cs26  1  0.75000000  0.48834678  0.37500000  1
  Cs  Cs27  1  0.75000000  0.48834678  0.87500000  1
  Cs  Cs28  1  0.50000000  0.98834678  0.37500000  1
  Cs  Cs29  1  0.50000000  0.98834678  0.87500000  1
  Cs  Cs30  1  1.00000000  0.98834678  0.37500000  1
  Cs  Cs31  1  1.00000000  0.98834678  0.87500000  1
  Cs  Cs32  1  0.39298641  -0.19574484  0.13216487  1
  Cs  Cs33  1  0.39298641  -0.19574484  0.63216487  1
  Cs  Cs34  1  0.89298641  -0.19574484  0.13216487  1
  Cs  Cs35  1  0.89298641  -0.19574484  0.63216487  1
  Cs  Cs36  1  0.64298641  0.30425516  0.13216487  1
  Cs  Cs37  1  0.64298641  0.30425516  0.63216487  1
  Cs  Cs38  1  1.14298641  0.30425516  0.13216487  1
  Cs  Cs39  1  1.14298641  0.30425516  0.63216487  1
  Cs  Cs40  1  0.39298641  0.19574484  0.38216487  1
  Cs  Cs41  1  0.39298641  0.19574484  0.88216487  1
  Cs  Cs42  1  0.89298641  0.19574484  0.38216487  1
  Cs  Cs43  1  0.89298641  0.19574484  0.88216487  1
  Cs  Cs44  1  0.64298641  0.69574484  0.38216487  1
  Cs  Cs45  1  0.64298641  0.69574484  0.88216487  1
  Cs  Cs46  1  1.14298641  0.69574484  0.38216487  1
  Cs  Cs47  1  1.14298641  0.69574484  0.88216487  1
  Al  Al48  1  0.25000000  -0.05980343  0.12500000  1
  Al  Al49  1  0.25000000  -0.05980343  0.62500000  1
  Al  Al50  1  0.75000000  -0.05980343  0.12500000  1
  Al  Al51  1  0.75000000  -0.05980343  0.62500000  1
  Al  Al52  1  0.50000000  0.44019657  0.12500000  1
  Al  Al53  1  0.50000000  0.44019657  0.62500000  1
  Al  Al54  1  1.00000000  0.44019657  0.12500000  1
  Al  Al55  1  1.00000000  0.44019657  0.62500000  1
  Al  Al56  1  0.25000000  0.05980343  0.37500000  1
  Al  Al57  1  0.25000000  0.05980343  0.87500000  1
  Al  Al58  1  0.75000000  0.05980343  0.37500000  1
  Al  Al59  1  0.75000000  0.05980343  0.87500000  1
  Al  Al60  1  0.50000000  0.55980343  0.37500000  1
  Al  Al61  1  0.50000000  0.55980343  0.87500000  1
  Al  Al62  1  1.00000000  0.55980343  0.37500000  1
  Al  Al63  1  1.00000000  0.55980343  0.87500000  1
  Ge  Ge64  1  0.16764702  0.09966345  0.12978808  1
  Ge  Ge65  1  0.16764702  0.09966345  0.62978808  1
  Ge  Ge66  1  0.66764702  0.09966345  0.12978808  1
  Ge  Ge67  1  0.66764702  0.09966345  0.62978808  1
  Ge  Ge68  1  0.41764702  0.59966345  0.12978808  1
  Ge  Ge69  1  0.41764702  0.59966345  0.62978808  1
  Ge  Ge70  1  0.91764702  0.59966345  0.12978808  1
  Ge  Ge71  1  0.91764702  0.59966345  0.62978808  1
  Ge  Ge72  1  0.33235298  0.09966345  0.12021192  1
  Ge  Ge73  1  0.33235298  0.09966345  0.62021192  1
  Ge  Ge74  1  0.83235298  0.09966345  0.12021192  1
  Ge  Ge75  1  0.83235298  0.09966345  0.62021192  1
  Ge  Ge76  1  0.58235298  0.59966345  0.12021192  1
  Ge  Ge77  1  0.58235298  0.59966345  0.62021192  1
  Ge  Ge78  1  1.08235298  0.59966345  0.12021192  1
  Ge  Ge79  1  1.08235298  0.59966345  0.62021192  1
  Ge  Ge80  1  0.16764702  -0.09966345  0.37978808  1
  Ge  Ge81  1  0.16764702  -0.09966345  0.87978808  1
  Ge  Ge82  1  0.66764702  -0.09966345  0.37978808  1
  Ge  Ge83  1  0.66764702  -0.09966345  0.87978808  1
  Ge  Ge84  1  0.41764702  0.40033655  0.37978808  1
  Ge  Ge85  1  0.41764702  0.40033655  0.87978808  1
  Ge  Ge86  1  0.91764702  0.40033655  0.37978808  1
  Ge  Ge87  1  0.91764702  0.40033655  0.87978808  1
  Ge  Ge88  1  0.33235298  -0.09966345  0.37021192  1
  Ge  Ge89  1  0.33235298  -0.09966345  0.87021192  1
  Ge  Ge90  1  0.83235298  -0.09966345  0.37021192  1
  Ge  Ge91  1  0.83235298  -0.09966345  0.87021192  1
  Ge  Ge92  1  0.58235298  0.40033655  0.37021192  1
  Ge  Ge93  1  0.58235298  0.40033655  0.87021192  1
  Ge  Ge94  1  1.08235298  0.40033655  0.37021192  1
  Ge  Ge95  1  1.08235298  0.40033655  0.87021192  1
  O  O96  1  0.16995259  -0.00394171  0.11748081  1
  O  O97  1  0.16995259  -0.00394171  0.61748081  1
  O  O98  1  0.66995259  -0.00394171  0.11748081  1
  O  O99  1  0.66995259  -0.00394171  0.61748081  1
  O  O100  1  0.41995259  0.49605829  0.11748081  1
  O  O101  1  0.41995259  0.49605829  0.61748081  1
  O  O102  1  0.91995259  0.49605829  0.11748081  1
  O  O103  1  0.91995259  0.49605829  0.61748081  1
  O  O104  1  0.16995259  0.00394171  0.36748081  1
  O  O105  1  0.16995259  0.00394171  0.86748081  1
  O  O106  1  0.66995259  0.00394171  0.36748081  1
  O  O107  1  0.66995259  0.00394171  0.86748081  1
  O  O108  1  0.41995259  0.50394171  0.36748081  1
  O  O109  1  0.41995259  0.50394171  0.86748081  1
  O  O110  1  0.91995259  0.50394171  0.36748081  1
  O  O111  1  0.91995259  0.50394171  0.86748081  1
  O  O112  1  0.30172988  0.12391522  0.48766652  1
  O  O113  1  0.30172988  0.12391522  0.98766652  1
  O  O114  1  0.80172988  0.12391522  0.48766652  1
  O  O115  1  0.80172988  0.12391522  0.98766652  1
  O  O116  1  0.55172988  0.62391522  0.48766652  1
  O  O117  1  0.55172988  0.62391522  0.98766652  1
  O  O118  1  1.05172988  0.62391522  0.48766652  1
  O  O119  1  1.05172988  0.62391522  0.98766652  1
  O  O120  1  0.33004741  -0.00394171  0.13251919  1
  O  O121  1  0.33004741  -0.00394171  0.63251919  1
  O  O122  1  0.83004741  -0.00394171  0.13251919  1
  O  O123  1  0.83004741  -0.00394171  0.63251919  1
  O  O124  1  0.58004741  0.49605829  0.13251919  1
  O  O125  1  0.58004741  0.49605829  0.63251919  1
  O  O126  1  1.08004741  0.49605829  0.13251919  1
  O  O127  1  1.08004741  0.49605829  0.63251919  1
  O  O128  1  0.18375770  0.36351774  0.47376406  1
  O  O129  1  0.18375770  0.36351774  0.97376406  1
  O  O130  1  0.68375770  0.36351774  0.47376406  1
  O  O131  1  0.68375770  0.36351774  0.97376406  1
  O  O132  1  0.43375770  0.86351774  0.47376406  1
  O  O133  1  0.43375770  0.86351774  0.97376406  1
  O  O134  1  0.93375770  0.86351774  0.47376406  1
  O  O135  1  0.93375770  0.86351774  0.97376406  1
  O  O136  1  0.19827012  -0.12391522  0.01233348  1
  O  O137  1  0.19827012  -0.12391522  0.51233348  1
  O  O138  1  0.69827012  -0.12391522  0.01233348  1
  O  O139  1  0.69827012  -0.12391522  0.51233348  1
  O  O140  1  0.44827012  0.37608478  0.01233348  1
  O  O141  1  0.44827012  0.37608478  0.51233348  1
  O  O142  1  0.94827012  0.37608478  0.01233348  1
  O  O143  1  0.94827012  0.37608478  0.51233348  1
  O  O144  1  0.18375770  -0.36351774  0.22376406  1
  O  O145  1  0.18375770  -0.36351774  0.72376406  1
  O  O146  1  0.68375770  -0.36351774  0.22376406  1
  O  O147  1  0.68375770  -0.36351774  0.72376406  1
  O  O148  1  0.43375770  0.13648226  0.22376406  1
  O  O149  1  0.43375770  0.13648226  0.72376406  1
  O  O150  1  0.93375770  0.13648226  0.22376406  1
  O  O151  1  0.93375770  0.13648226  0.72376406  1
  O  O152  1  0.30172988  -0.12391522  0.23766652  1
  O  O153  1  0.30172988  -0.12391522  0.73766652  1
  O  O154  1  0.80172988  -0.12391522  0.23766652  1
  O  O155  1  0.80172988  -0.12391522  0.73766652  1
  O  O156  1  0.55172988  0.37608478  0.23766652  1
  O  O157  1  0.55172988  0.37608478  0.73766652  1
  O  O158  1  1.05172988  0.37608478  0.23766652  1
  O  O159  1  1.05172988  0.37608478  0.73766652  1
  O  O160  1  0.25000000  -0.14740899  0.37500000  1
  O  O161  1  0.25000000  -0.14740899  0.87500000  1
  O  O162  1  0.75000000  -0.14740899  0.37500000  1
  O  O163  1  0.75000000  -0.14740899  0.87500000  1
  O  O164  1  0.50000000  0.35259101  0.37500000  1
  O  O165  1  0.50000000  0.35259101  0.87500000  1
  O  O166  1  1.00000000  0.35259101  0.37500000  1
  O  O167  1  1.00000000  0.35259101  0.87500000  1
  O  O168  1  0.33004741  0.00394171  0.38251919  1
  O  O169  1  0.33004741  0.00394171  0.88251919  1
  O  O170  1  0.83004741  0.00394171  0.38251919  1
  O  O171  1  0.83004741  0.00394171  0.88251919  1
  O  O172  1  0.58004741  0.50394171  0.38251919  1
  O  O173  1  0.58004741  0.50394171  0.88251919  1
  O  O174  1  1.08004741  0.50394171  0.38251919  1
  O  O175  1  1.08004741  0.50394171  0.88251919  1
  O  O176  1  0.31624230  0.36351774  0.27623594  1
  O  O177  1  0.31624230  0.36351774  0.77623594  1
  O  O178  1  0.81624230  0.36351774  0.27623594  1
  O  O179  1  0.81624230  0.36351774  0.77623594  1
  O  O180  1  0.56624230  0.86351774  0.27623594  1
  O  O181  1  0.56624230  0.86351774  0.77623594  1
  O  O182  1  1.06624230  0.86351774  0.27623594  1
  O  O183  1  1.06624230  0.86351774  0.77623594  1
  O  O184  1  0.25000000  0.14740899  0.12500000  1
  O  O185  1  0.25000000  0.14740899  0.62500000  1
  O  O186  1  0.75000000  0.14740899  0.12500000  1
  O  O187  1  0.75000000  0.14740899  0.62500000  1
  O  O188  1  0.50000000  0.64740899  0.12500000  1
  O  O189  1  0.50000000  0.64740899  0.62500000  1
  O  O190  1  1.00000000  0.64740899  0.12500000  1
  O  O191  1  1.00000000  0.64740899  0.62500000  1
  O  O192  1  0.31624230  -0.36351774  0.02623594  1
  O  O193  1  0.31624230  -0.36351774  0.52623594  1
  O  O194  1  0.81624230  -0.36351774  0.02623594  1
  O  O195  1  0.81624230  -0.36351774  0.52623594  1
  O  O196  1  0.56624230  0.13648226  0.02623594  1
  O  O197  1  0.56624230  0.13648226  0.52623594  1
  O  O198  1  1.06624230  0.13648226  0.02623594  1
  O  O199  1  1.06624230  0.13648226  0.52623594  1
  O  O200  1  0.19827012  0.12391522  0.26233348  1
  O  O201  1  0.19827012  0.12391522  0.76233348  1
  O  O202  1  0.69827012  0.12391522  0.26233348  1
  O  O203  1  0.69827012  0.12391522  0.76233348  1
  O  O204  1  0.44827012  0.62391522  0.26233348  1
  O  O205  1  0.44827012  0.62391522  0.76233348  1
  O  O206  1  0.94827012  0.62391522  0.26233348  1
  O  O207  1  0.94827012  0.62391522  0.76233348  1
