# generated using pymatgen
data_BaBAsO5
_symmetry_space_group_name_H-M   'P 1'
_cell_length_a   14.66619559
_cell_length_b   14.66619559
_cell_length_c   14.25455330
_cell_angle_alpha   90.00000000
_cell_angle_beta   90.00000000
_cell_angle_gamma   120.00000000
_symmetry_Int_Tables_number   1
_chemical_formula_structural   BaBAsO5
_chemical_formula_sum   'Ba24 B24 As24 O120'
_cell_volume   2655.33419833
_cell_formula_units_Z   24
loop_
 _symmetry_equiv_pos_site_id
 _symmetry_equiv_pos_as_xyz
  1  'x, y, z'
loop_
 _atom_site_type_symbol
 _atom_site_label
 _atom_site_symmetry_multiplicity
 _atom_site_fract_x
 _atom_site_fract_y
 _atom_site_fract_z
 _atom_site_occupancy
  Ba  Ba0  1  0.19463006  0.19463006  0.25000000  1
  Ba  Ba1  1  0.19463006  0.19463006  0.75000000  1
  Ba  Ba2  1  0.19463006  0.69463006  0.25000000  1
  Ba  Ba3  1  0.19463006  0.69463006  0.75000000  1
  Ba  Ba4  1  0.69463006  0.19463006  0.25000000  1
  Ba  Ba5  1  0.69463006  0.19463006  0.75000000  1
  Ba  Ba6  1  0.69463006  0.69463006  0.25000000  1
  Ba  Ba7  1  0.69463006  0.69463006  0.75000000  1
  Ba  Ba8  1  0.00000000  0.30536994  0.08333333  1
  Ba  Ba9  1  0.00000000  0.30536994  0.58333333  1
  Ba  Ba10  1  -0.00000000  0.80536994  0.08333333  1
  Ba  Ba11  1  -0.00000000  0.80536994  0.58333333  1
  Ba  Ba12  1  0.50000000  0.30536994  0.08333333  1
  Ba  Ba13  1  0.50000000  0.30536994  0.58333333  1
  Ba  Ba14  1  0.50000000  0.80536994  0.08333333  1
  Ba  Ba15  1  0.50000000  0.80536994  0.58333333  1
  Ba  Ba16  1  0.30536994  0.00000000  0.41666667  1
  Ba  Ba17  1  0.30536994  0.00000000  0.91666667  1
  Ba  Ba18  1  0.30536994  0.50000000  0.41666667  1
  Ba  Ba19  1  0.30536994  0.50000000  0.91666667  1
  Ba  Ba20  1  0.80536994  0.00000000  0.41666667  1
  Ba  Ba21  1  0.80536994  0.00000000  0.91666667  1
  Ba  Ba22  1  0.80536994  0.50000000  0.41666667  1
  Ba  Ba23  1  0.80536994  0.50000000  0.91666667  1
  B  B24  1  0.45129465  0.45129465  0.25000000  1
  B  B25  1  0.45129465  0.45129465  0.75000000  1
  B  B26  1  0.45129465  0.95129465  0.25000000  1
  B  B27  1  0.45129465  0.95129465  0.75000000  1
  B  B28  1  0.95129465  0.45129465  0.25000000  1
  B  B29  1  0.95129465  0.45129465  0.75000000  1
  B  B30  1  0.95129465  0.95129465  0.25000000  1
  B  B31  1  0.95129465  0.95129465  0.75000000  1
  B  B32  1  -0.00000000  0.04870535  0.08333333  1
  B  B33  1  -0.00000000  0.04870535  0.58333333  1
  B  B34  1  -0.00000000  0.54870535  0.08333333  1
  B  B35  1  -0.00000000  0.54870535  0.58333333  1
  B  B36  1  0.50000000  0.04870535  0.08333333  1
  B  B37  1  0.50000000  0.04870535  0.58333333  1
  B  B38  1  0.50000000  0.54870535  0.08333333  1
  B  B39  1  0.50000000  0.54870535  0.58333333  1
  B  B40  1  0.04870535  0.00000000  0.41666667  1
  B  B41  1  0.04870535  0.00000000  0.91666667  1
  B  B42  1  0.04870535  0.50000000  0.41666667  1
  B  B43  1  0.04870535  0.50000000  0.91666667  1
  B  B44  1  0.54870535  0.00000000  0.41666667  1
  B  B45  1  0.54870535  0.00000000  0.91666667  1
  B  B46  1  0.54870535  0.50000000  0.41666667  1
  B  B47  1  0.54870535  0.50000000  0.91666667  1
  As  As48  1  0.30170468  0.00000000  0.16666667  1
  As  As49  1  0.30170468  0.00000000  0.66666667  1
  As  As50  1  0.30170468  0.50000000  0.16666667  1
  As  As51  1  0.30170468  0.50000000  0.66666667  1
  As  As52  1  0.80170468  0.00000000  0.16666667  1
  As  As53  1  0.80170468  0.00000000  0.66666667  1
  As  As54  1  0.80170468  0.50000000  0.16666667  1
  As  As55  1  0.80170468  0.50000000  0.66666667  1
  As  As56  1  0.19829532  0.19829532  0.00000000  1
  As  As57  1  0.19829532  0.19829532  0.50000000  1
  As  As58  1  0.19829532  0.69829532  0.00000000  1
  As  As59  1  0.19829532  0.69829532  0.50000000  1
  As  As60  1  0.69829532  0.19829532  0.00000000  1
  As  As61  1  0.69829532  0.19829532  0.50000000  1
  As  As62  1  0.69829532  0.69829532  0.00000000  1
  As  As63  1  0.69829532  0.69829532  0.50000000  1
  As  As64  1  0.00000000  0.30170468  0.33333333  1
  As  As65  1  0.00000000  0.30170468  0.83333333  1
  As  As66  1  -0.00000000  0.80170468  0.33333333  1
  As  As67  1  -0.00000000  0.80170468  0.83333333  1
  As  As68  1  0.50000000  0.30170468  0.33333333  1
  As  As69  1  0.50000000  0.30170468  0.83333333  1
  As  As70  1  0.50000000  0.80170468  0.33333333  1
  As  As71  1  0.50000000  0.80170468  0.83333333  1
  O  O72  1  0.48627528  0.48627528  0.00000000  1
  O  O73  1  0.48627528  0.48627528  0.50000000  1
  O  O74  1  0.48627528  0.98627528  0.00000000  1
  O  O75  1  0.48627528  0.98627528  0.50000000  1
  O  O76  1  0.98627528  0.48627528  0.00000000  1
  O  O77  1  0.98627528  0.48627528  0.50000000  1
  O  O78  1  0.98627528  0.98627528  0.00000000  1
  O  O79  1  0.98627528  0.98627528  0.50000000  1
  O  O80  1  0.01372472  0.00000000  0.16666667  1
  O  O81  1  0.01372472  0.00000000  0.66666667  1
  O  O82  1  0.01372472  0.50000000  0.16666667  1
  O  O83  1  0.01372472  0.50000000  0.66666667  1
  O  O84  1  0.51372472  0.00000000  0.16666667  1
  O  O85  1  0.51372472  0.00000000  0.66666667  1
  O  O86  1  0.51372472  0.50000000  0.16666667  1
  O  O87  1  0.51372472  0.50000000  0.66666667  1
  O  O88  1  -0.00000000  0.01372472  0.33333333  1
  O  O89  1  -0.00000000  0.01372472  0.83333333  1
  O  O90  1  0.00000000  0.51372472  0.33333333  1
  O  O91  1  0.00000000  0.51372472  0.83333333  1
  O  O92  1  0.50000000  0.01372472  0.33333333  1
  O  O93  1  0.50000000  0.01372472  0.83333333  1
  O  O94  1  0.50000000  0.51372472  0.33333333  1
  O  O95  1  0.50000000  0.51372472  0.83333333  1
  O  O96  1  0.28216420  0.07539061  0.24292255  1
  O  O97  1  0.28216420  0.07539061  0.74292255  1
  O  O98  1  0.28216420  0.57539061  0.24292255  1
  O  O99  1  0.28216420  0.57539061  0.74292255  1
  O  O100  1  0.78216420  0.07539061  0.24292255  1
  O  O101  1  0.78216420  0.07539061  0.74292255  1
  O  O102  1  0.78216420  0.57539061  0.24292255  1
  O  O103  1  0.78216420  0.57539061  0.74292255  1
  O  O104  1  0.29322642  0.21783580  0.07625588  1
  O  O105  1  0.29322642  0.21783580  0.57625588  1
  O  O106  1  0.29322642  0.71783580  0.07625588  1
  O  O107  1  0.29322642  0.71783580  0.57625588  1
  O  O108  1  0.79322642  0.21783580  0.07625588  1
  O  O109  1  0.79322642  0.21783580  0.57625588  1
  O  O110  1  0.79322642  0.71783580  0.07625588  1
  O  O111  1  0.79322642  0.71783580  0.57625588  1
  O  O112  1  0.42460939  0.20677358  0.40958922  1
  O  O113  1  0.42460939  0.20677358  0.90958922  1
  O  O114  1  0.42460939  0.70677358  0.40958922  1
  O  O115  1  0.42460939  0.70677358  0.90958922  1
  O  O116  1  0.92460939  0.20677358  0.40958922  1
  O  O117  1  0.92460939  0.20677358  0.90958922  1
  O  O118  1  0.92460939  0.70677358  0.40958922  1
  O  O119  1  0.92460939  0.70677358  0.90958922  1
  O  O120  1  0.07299791  0.41093190  0.40620415  1
  O  O121  1  0.07299791  0.41093190  0.90620415  1
  O  O122  1  0.07299791  0.91093190  0.40620415  1
  O  O123  1  0.07299791  0.91093190  0.90620415  1
  O  O124  1  0.57299791  0.41093190  0.40620415  1
  O  O125  1  0.57299791  0.41093190  0.90620415  1
  O  O126  1  0.57299791  0.91093190  0.40620415  1
  O  O127  1  0.57299791  0.91093190  0.90620415  1
  O  O128  1  0.08906810  0.16206602  0.07287082  1
  O  O129  1  0.08906810  0.16206602  0.57287082  1
  O  O130  1  0.08906810  0.66206602  0.07287082  1
  O  O131  1  0.08906810  0.66206602  0.57287082  1
  O  O132  1  0.58906810  0.16206602  0.07287082  1
  O  O133  1  0.58906810  0.16206602  0.57287082  1
  O  O134  1  0.58906810  0.66206602  0.07287082  1
  O  O135  1  0.58906810  0.66206602  0.57287082  1
  O  O136  1  0.33793398  0.42700209  0.23953749  1
  O  O137  1  0.33793398  0.42700209  0.73953749  1
  O  O138  1  0.33793398  0.92700209  0.23953749  1
  O  O139  1  0.33793398  0.92700209  0.73953749  1
  O  O140  1  0.83793398  0.42700209  0.23953749  1
  O  O141  1  0.83793398  0.42700209  0.73953749  1
  O  O142  1  0.83793398  0.92700209  0.23953749  1
  O  O143  1  0.83793398  0.92700209  0.73953749  1
  O  O144  1  0.07539061  0.28216420  0.25707745  1
  O  O145  1  0.07539061  0.28216420  0.75707745  1
  O  O146  1  0.07539061  0.78216420  0.25707745  1
  O  O147  1  0.07539061  0.78216420  0.75707745  1
  O  O148  1  0.57539061  0.28216420  0.25707745  1
  O  O149  1  0.57539061  0.28216420  0.75707745  1
  O  O150  1  0.57539061  0.78216420  0.25707745  1
  O  O151  1  0.57539061  0.78216420  0.75707745  1
  O  O152  1  0.21783580  0.29322642  0.42374412  1
  O  O153  1  0.21783580  0.29322642  0.92374412  1
  O  O154  1  0.21783580  0.79322642  0.42374412  1
  O  O155  1  0.21783580  0.79322642  0.92374412  1
  O  O156  1  0.71783580  0.29322642  0.42374412  1
  O  O157  1  0.71783580  0.29322642  0.92374412  1
  O  O158  1  0.71783580  0.79322642  0.42374412  1
  O  O159  1  0.71783580  0.79322642  0.92374412  1
  O  O160  1  0.20677358  0.42460939  0.09041078  1
  O  O161  1  0.20677358  0.42460939  0.59041078  1
  O  O162  1  0.20677358  0.92460939  0.09041078  1
  O  O163  1  0.20677358  0.92460939  0.59041078  1
  O  O164  1  0.70677358  0.42460939  0.09041078  1
  O  O165  1  0.70677358  0.42460939  0.59041078  1
  O  O166  1  0.70677358  0.92460939  0.09041078  1
  O  O167  1  0.70677358  0.92460939  0.59041078  1
  O  O168  1  0.42700209  0.33793398  0.26046251  1
  O  O169  1  0.42700209  0.33793398  0.76046251  1
  O  O170  1  0.42700209  0.83793398  0.26046251  1
  O  O171  1  0.42700209  0.83793398  0.76046251  1
  O  O172  1  0.92700209  0.33793398  0.26046251  1
  O  O173  1  0.92700209  0.33793398  0.76046251  1
  O  O174  1  0.92700209  0.83793398  0.26046251  1
  O  O175  1  0.92700209  0.83793398  0.76046251  1
  O  O176  1  0.16206602  0.08906810  0.42712918  1
  O  O177  1  0.16206602  0.08906810  0.92712918  1
  O  O178  1  0.16206602  0.58906810  0.42712918  1
  O  O179  1  0.16206602  0.58906810  0.92712918  1
  O  O180  1  0.66206602  0.08906810  0.42712918  1
  O  O181  1  0.66206602  0.08906810  0.92712918  1
  O  O182  1  0.66206602  0.58906810  0.42712918  1
  O  O183  1  0.66206602  0.58906810  0.92712918  1
  O  O184  1  0.41093190  0.07299791  0.09379585  1
  O  O185  1  0.41093190  0.07299791  0.59379585  1
  O  O186  1  0.41093190  0.57299791  0.09379585  1
  O  O187  1  0.41093190  0.57299791  0.59379585  1
  O  O188  1  0.91093190  0.07299791  0.09379585  1
  O  O189  1  0.91093190  0.07299791  0.59379585  1
  O  O190  1  0.91093190  0.57299791  0.09379585  1
  O  O191  1  0.91093190  0.57299791  0.59379585  1
