# generated using pymatgen
data_PbWO4
_symmetry_space_group_name_H-M   'P 1'
_cell_length_a   16.66457009
_cell_length_b   14.94860254
_cell_length_c   13.52044950
_cell_angle_alpha   90.00000000
_cell_angle_beta   108.57848061
_cell_angle_gamma   90.00000000
_symmetry_Int_Tables_number   1
_chemical_formula_structural   PbWO4
_chemical_formula_sum   'Pb36 W36 O144'
_cell_volume   3192.58837824
_cell_formula_units_Z   36
loop_
 _symmetry_equiv_pos_site_id
 _symmetry_equiv_pos_as_xyz
  1  'x, y, z'
loop_
 _atom_site_type_symbol
 _atom_site_label
 _atom_site_symmetry_multiplicity
 _atom_site_fract_x
 _atom_site_fract_y
 _atom_site_fract_z
 _atom_site_occupancy
  Pb  Pb0  1  0.27809372  0.23298485  0.34734697  1
  Pb  Pb1  1  0.27809372  0.56631819  0.34734697  1
  Pb  Pb2  1  0.27809372  0.89965152  0.34734697  1
  Pb  Pb3  1  0.61142705  0.23298485  0.34734697  1
  Pb  Pb4  1  0.61142705  0.56631819  0.34734697  1
  Pb  Pb5  1  0.61142705  0.89965152  0.34734697  1
  Pb  Pb6  1  0.94476039  0.23298485  0.34734697  1
  Pb  Pb7  1  0.94476039  0.56631819  0.34734697  1
  Pb  Pb8  1  0.94476039  0.89965152  0.34734697  1
  Pb  Pb9  1  0.05523961  0.06631819  0.15265303  1
  Pb  Pb10  1  0.05523961  0.39965152  0.15265303  1
  Pb  Pb11  1  0.05523961  0.73298485  0.15265303  1
  Pb  Pb12  1  0.38857295  0.06631819  0.15265303  1
  Pb  Pb13  1  0.38857295  0.39965152  0.15265303  1
  Pb  Pb14  1  0.38857295  0.73298485  0.15265303  1
  Pb  Pb15  1  0.72190628  0.06631819  0.15265303  1
  Pb  Pb16  1  0.72190628  0.39965152  0.15265303  1
  Pb  Pb17  1  0.72190628  0.73298485  0.15265303  1
  Pb  Pb18  1  0.05523961  0.10034848  0.65265303  1
  Pb  Pb19  1  0.05523961  0.43368181  0.65265303  1
  Pb  Pb20  1  0.05523961  0.76701515  0.65265303  1
  Pb  Pb21  1  0.38857295  0.10034848  0.65265303  1
  Pb  Pb22  1  0.38857295  0.43368181  0.65265303  1
  Pb  Pb23  1  0.38857295  0.76701515  0.65265303  1
  Pb  Pb24  1  0.72190628  0.10034848  0.65265303  1
  Pb  Pb25  1  0.72190628  0.43368181  0.65265303  1
  Pb  Pb26  1  0.72190628  0.76701515  0.65265303  1
  Pb  Pb27  1  0.27809372  0.26701515  0.84734697  1
  Pb  Pb28  1  0.27809372  0.60034848  0.84734697  1
  Pb  Pb29  1  0.27809372  0.93368181  0.84734697  1
  Pb  Pb30  1  0.61142705  0.26701515  0.84734697  1
  Pb  Pb31  1  0.61142705  0.60034848  0.84734697  1
  Pb  Pb32  1  0.61142705  0.93368181  0.84734697  1
  Pb  Pb33  1  0.94476039  0.26701515  0.84734697  1
  Pb  Pb34  1  0.94476039  0.60034848  0.84734697  1
  Pb  Pb35  1  0.94476039  0.93368181  0.84734697  1
  W  W36  1  0.13012024  0.08309210  0.42241632  1
  W  W37  1  0.13012024  0.41642544  0.42241632  1
  W  W38  1  0.13012024  0.74975877  0.42241632  1
  W  W39  1  0.46345358  0.08309210  0.42241632  1
  W  W40  1  0.46345358  0.41642544  0.42241632  1
  W  W41  1  0.46345358  0.74975877  0.42241632  1
  W  W42  1  0.79678691  0.08309210  0.42241632  1
  W  W43  1  0.79678691  0.41642544  0.42241632  1
  W  W44  1  0.79678691  0.74975877  0.42241632  1
  W  W45  1  0.20321309  0.24975877  0.07758368  1
  W  W46  1  0.20321309  0.58309210  0.07758368  1
  W  W47  1  0.20321309  0.91642544  0.07758368  1
  W  W48  1  0.53654642  0.24975877  0.07758368  1
  W  W49  1  0.53654642  0.58309210  0.07758368  1
  W  W50  1  0.53654642  0.91642544  0.07758368  1
  W  W51  1  0.86987976  0.24975877  0.07758368  1
  W  W52  1  0.86987976  0.58309210  0.07758368  1
  W  W53  1  0.86987976  0.91642544  0.07758368  1
  W  W54  1  0.20321309  0.25024123  0.57758368  1
  W  W55  1  0.20321309  0.58357456  0.57758368  1
  W  W56  1  0.20321309  0.91690790  0.57758368  1
  W  W57  1  0.53654642  0.25024123  0.57758368  1
  W  W58  1  0.53654642  0.58357456  0.57758368  1
  W  W59  1  0.53654642  0.91690790  0.57758368  1
  W  W60  1  0.86987976  0.25024123  0.57758368  1
  W  W61  1  0.86987976  0.58357456  0.57758368  1
  W  W62  1  0.86987976  0.91690790  0.57758368  1
  W  W63  1  0.13012024  0.08357456  0.92241632  1
  W  W64  1  0.13012024  0.41690790  0.92241632  1
  W  W65  1  0.13012024  0.75024123  0.92241632  1
  W  W66  1  0.46345358  0.08357456  0.92241632  1
  W  W67  1  0.46345358  0.41690790  0.92241632  1
  W  W68  1  0.46345358  0.75024123  0.92241632  1
  W  W69  1  0.79678691  0.08357456  0.92241632  1
  W  W70  1  0.79678691  0.41690790  0.92241632  1
  W  W71  1  0.79678691  0.75024123  0.92241632  1
  O  O72  1  0.08958857  0.18217291  0.47966648  1
  O  O73  1  0.08958857  0.51550624  0.47966648  1
  O  O74  1  0.08958857  0.84883957  0.47966648  1
  O  O75  1  0.42292191  0.18217291  0.47966648  1
  O  O76  1  0.42292191  0.51550624  0.47966648  1
  O  O77  1  0.42292191  0.84883957  0.47966648  1
  O  O78  1  0.75625524  0.18217291  0.47966648  1
  O  O79  1  0.75625524  0.51550624  0.47966648  1
  O  O80  1  0.75625524  0.84883957  0.47966648  1
  O  O81  1  0.24374476  0.01550624  0.02033352  1
  O  O82  1  0.24374476  0.34883957  0.02033352  1
  O  O83  1  0.24374476  0.68217291  0.02033352  1
  O  O84  1  0.57707809  0.01550624  0.02033352  1
  O  O85  1  0.57707809  0.34883957  0.02033352  1
  O  O86  1  0.57707809  0.68217291  0.02033352  1
  O  O87  1  0.91041143  0.01550624  0.02033352  1
  O  O88  1  0.91041143  0.34883957  0.02033352  1
  O  O89  1  0.91041143  0.68217291  0.02033352  1
  O  O90  1  0.24374476  0.15116043  0.52033352  1
  O  O91  1  0.24374476  0.48449376  0.52033352  1
  O  O92  1  0.24374476  0.81782709  0.52033352  1
  O  O93  1  0.57707809  0.15116043  0.52033352  1
  O  O94  1  0.57707809  0.48449376  0.52033352  1
  O  O95  1  0.57707809  0.81782709  0.52033352  1
  O  O96  1  0.91041143  0.15116043  0.52033352  1
  O  O97  1  0.91041143  0.48449376  0.52033352  1
  O  O98  1  0.91041143  0.81782709  0.52033352  1
  O  O99  1  0.08958857  0.31782709  0.97966648  1
  O  O100  1  0.08958857  0.65116043  0.97966648  1
  O  O101  1  0.08958857  0.98449376  0.97966648  1
  O  O102  1  0.42292191  0.31782709  0.97966648  1
  O  O103  1  0.42292191  0.65116043  0.97966648  1
  O  O104  1  0.42292191  0.98449376  0.97966648  1
  O  O105  1  0.75625524  0.31782709  0.97966648  1
  O  O106  1  0.75625524  0.65116043  0.97966648  1
  O  O107  1  0.75625524  0.98449376  0.97966648  1
  O  O108  1  0.20438028  0.31385712  0.44045919  1
  O  O109  1  0.20438028  0.64719045  0.44045919  1
  O  O110  1  0.20438028  0.98052379  0.44045919  1
  O  O111  1  0.53771362  0.31385712  0.44045919  1
  O  O112  1  0.53771362  0.64719045  0.44045919  1
  O  O113  1  0.53771362  0.98052379  0.44045919  1
  O  O114  1  0.87104695  0.31385712  0.44045919  1
  O  O115  1  0.87104695  0.64719045  0.44045919  1
  O  O116  1  0.87104695  0.98052379  0.44045919  1
  O  O117  1  0.12895305  0.14719045  0.05954081  1
  O  O118  1  0.12895305  0.48052379  0.05954081  1
  O  O119  1  0.12895305  0.81385712  0.05954081  1
  O  O120  1  0.46228638  0.14719045  0.05954081  1
  O  O121  1  0.46228638  0.48052379  0.05954081  1
  O  O122  1  0.46228638  0.81385712  0.05954081  1
  O  O123  1  0.79561972  0.14719045  0.05954081  1
  O  O124  1  0.79561972  0.48052379  0.05954081  1
  O  O125  1  0.79561972  0.81385712  0.05954081  1
  O  O126  1  0.12895305  0.01947621  0.55954081  1
  O  O127  1  0.12895305  0.35280955  0.55954081  1
  O  O128  1  0.12895305  0.68614288  0.55954081  1
  O  O129  1  0.46228638  0.01947621  0.55954081  1
  O  O130  1  0.46228638  0.35280955  0.55954081  1
  O  O131  1  0.46228638  0.68614288  0.55954081  1
  O  O132  1  0.79561972  0.01947621  0.55954081  1
  O  O133  1  0.79561972  0.35280955  0.55954081  1
  O  O134  1  0.79561972  0.68614288  0.55954081  1
  O  O135  1  0.20438028  0.18614288  0.94045919  1
  O  O136  1  0.20438028  0.51947621  0.94045919  1
  O  O137  1  0.20438028  0.85280955  0.94045919  1
  O  O138  1  0.53771362  0.18614288  0.94045919  1
  O  O139  1  0.53771362  0.51947621  0.94045919  1
  O  O140  1  0.53771362  0.85280955  0.94045919  1
  O  O141  1  0.87104695  0.18614288  0.94045919  1
  O  O142  1  0.87104695  0.51947621  0.94045919  1
  O  O143  1  0.87104695  0.85280955  0.94045919  1
  O  O144  1  0.02957168  0.03894203  0.34484905  1
  O  O145  1  0.02957168  0.37227536  0.34484905  1
  O  O146  1  0.02957168  0.70560869  0.34484905  1
  O  O147  1  0.36290501  0.03894203  0.34484905  1
  O  O148  1  0.36290501  0.37227536  0.34484905  1
  O  O149  1  0.36290501  0.70560869  0.34484905  1
  O  O150  1  0.69623834  0.03894203  0.34484905  1
  O  O151  1  0.69623834  0.37227536  0.34484905  1
  O  O152  1  0.69623834  0.70560869  0.34484905  1
  O  O153  1  0.30376166  0.20560869  0.15515095  1
  O  O154  1  0.30376166  0.53894203  0.15515095  1
  O  O155  1  0.30376166  0.87227536  0.15515095  1
  O  O156  1  0.63709499  0.20560869  0.15515095  1
  O  O157  1  0.63709499  0.53894203  0.15515095  1
  O  O158  1  0.63709499  0.87227536  0.15515095  1
  O  O159  1  0.97042832  0.20560869  0.15515095  1
  O  O160  1  0.97042832  0.53894203  0.15515095  1
  O  O161  1  0.97042832  0.87227536  0.15515095  1
  O  O162  1  0.30376166  0.29439131  0.65515095  1
  O  O163  1  0.30376166  0.62772464  0.65515095  1
  O  O164  1  0.30376166  0.96105797  0.65515095  1
  O  O165  1  0.63709499  0.29439131  0.65515095  1
  O  O166  1  0.63709499  0.62772464  0.65515095  1
  O  O167  1  0.63709499  0.96105797  0.65515095  1
  O  O168  1  0.97042832  0.29439131  0.65515095  1
  O  O169  1  0.97042832  0.62772464  0.65515095  1
  O  O170  1  0.97042832  0.96105797  0.65515095  1
  O  O171  1  0.02957168  0.12772464  0.84484905  1
  O  O172  1  0.02957168  0.46105797  0.84484905  1
  O  O173  1  0.02957168  0.79439131  0.84484905  1
  O  O174  1  0.36290501  0.12772464  0.84484905  1
  O  O175  1  0.36290501  0.46105797  0.84484905  1
  O  O176  1  0.36290501  0.79439131  0.84484905  1
  O  O177  1  0.69623834  0.12772464  0.84484905  1
  O  O178  1  0.69623834  0.46105797  0.84484905  1
  O  O179  1  0.69623834  0.79439131  0.84484905  1
  O  O180  1  0.15707761  0.12957089  0.31280614  1
  O  O181  1  0.15707761  0.46290422  0.31280614  1
  O  O182  1  0.15707761  0.79623756  0.31280614  1
  O  O183  1  0.49041094  0.12957089  0.31280614  1
  O  O184  1  0.49041094  0.46290422  0.31280614  1
  O  O185  1  0.49041094  0.79623756  0.31280614  1
  O  O186  1  0.82374428  0.12957089  0.31280614  1
  O  O187  1  0.82374428  0.46290422  0.31280614  1
  O  O188  1  0.82374428  0.79623756  0.31280614  1
  O  O189  1  0.17625572  0.29623756  0.18719386  1
  O  O190  1  0.17625572  0.62957089  0.18719386  1
  O  O191  1  0.17625572  0.96290422  0.18719386  1
  O  O192  1  0.50958906  0.29623756  0.18719386  1
  O  O193  1  0.50958906  0.62957089  0.18719386  1
  O  O194  1  0.50958906  0.96290422  0.18719386  1
  O  O195  1  0.84292239  0.29623756  0.18719386  1
  O  O196  1  0.84292239  0.62957089  0.18719386  1
  O  O197  1  0.84292239  0.96290422  0.18719386  1
  O  O198  1  0.17625572  0.20376244  0.68719386  1
  O  O199  1  0.17625572  0.53709578  0.68719386  1
  O  O200  1  0.17625572  0.87042911  0.68719386  1
  O  O201  1  0.50958906  0.20376244  0.68719386  1
  O  O202  1  0.50958906  0.53709578  0.68719386  1
  O  O203  1  0.50958906  0.87042911  0.68719386  1
  O  O204  1  0.84292239  0.20376244  0.68719386  1
  O  O205  1  0.84292239  0.53709578  0.68719386  1
  O  O206  1  0.84292239  0.87042911  0.68719386  1
  O  O207  1  0.15707761  0.03709578  0.81280614  1
  O  O208  1  0.15707761  0.37042911  0.81280614  1
  O  O209  1  0.15707761  0.70376244  0.81280614  1
  O  O210  1  0.49041094  0.03709578  0.81280614  1
  O  O211  1  0.49041094  0.37042911  0.81280614  1
  O  O212  1  0.49041094  0.70376244  0.81280614  1
  O  O213  1  0.82374428  0.03709578  0.81280614  1
  O  O214  1  0.82374428  0.37042911  0.81280614  1
  O  O215  1  0.82374428  0.70376244  0.81280614  1
