# generated using pymatgen
data_Ag2HgO2
_symmetry_space_group_name_H-M   'P 1'
_cell_length_a   17.28681656
_cell_length_b   17.28681656
_cell_length_c   16.74903197
_cell_angle_alpha   90.00000000
_cell_angle_beta   90.00000000
_cell_angle_gamma   90.00000000
_symmetry_Int_Tables_number   1
_chemical_formula_structural   Ag2HgO2
_chemical_formula_sum   'Ag128 Hg64 O128'
_cell_volume   5005.18066599
_cell_formula_units_Z   64
loop_
 _symmetry_equiv_pos_site_id
 _symmetry_equiv_pos_as_xyz
  1  'x, y, z'
loop_
 _atom_site_type_symbol
 _atom_site_label
 _atom_site_symmetry_multiplicity
 _atom_site_fract_x
 _atom_site_fract_y
 _atom_site_fract_z
 _atom_site_occupancy
  Ag  Ag0  1  0.81101097  0.43892517  0.31417122  1
  Ag  Ag1  1  0.81101097  0.43892517  0.81417122  1
  Ag  Ag2  1  0.31101097  0.43892517  0.31417122  1
  Ag  Ag3  1  0.31101097  0.43892517  0.81417122  1
  Ag  Ag4  1  0.56101097  0.18892517  0.31417122  1
  Ag  Ag5  1  0.56101097  0.18892517  0.81417122  1
  Ag  Ag6  1  0.81101097  -0.06107483  0.31417122  1
  Ag  Ag7  1  0.81101097  -0.06107483  0.81417122  1
  Ag  Ag8  1  0.06101097  0.18892517  0.31417122  1
  Ag  Ag9  1  0.06101097  0.18892517  0.81417122  1
  Ag  Ag10  1  0.31101097  -0.06107483  0.31417122  1
  Ag  Ag11  1  0.31101097  -0.06107483  0.81417122  1
  Ag  Ag12  1  0.56101097  -0.31107483  0.31417122  1
  Ag  Ag13  1  0.56101097  -0.31107483  0.81417122  1
  Ag  Ag14  1  0.06101097  -0.31107483  0.31417122  1
  Ag  Ag15  1  0.06101097  -0.31107483  0.81417122  1
  Ag  Ag16  1  0.93892517  0.56101097  0.31082878  1
  Ag  Ag17  1  0.93892517  0.56101097  0.81082878  1
  Ag  Ag18  1  0.43892517  0.56101097  0.31082878  1
  Ag  Ag19  1  0.43892517  0.56101097  0.81082878  1
  Ag  Ag20  1  0.68892517  0.31101097  0.31082878  1
  Ag  Ag21  1  0.68892517  0.31101097  0.81082878  1
  Ag  Ag22  1  0.93892517  0.06101097  0.31082878  1
  Ag  Ag23  1  0.93892517  0.06101097  0.81082878  1
  Ag  Ag24  1  0.18892517  0.31101097  0.31082878  1
  Ag  Ag25  1  0.18892517  0.31101097  0.81082878  1
  Ag  Ag26  1  0.43892517  0.06101097  0.31082878  1
  Ag  Ag27  1  0.43892517  0.06101097  0.81082878  1
  Ag  Ag28  1  0.68892517  -0.18898903  0.31082878  1
  Ag  Ag29  1  0.68892517  -0.18898903  0.81082878  1
  Ag  Ag30  1  0.18892517  -0.18898903  0.31082878  1
  Ag  Ag31  1  0.18892517  -0.18898903  0.81082878  1
  Ag  Ag32  1  0.93892517  0.43898903  0.43917122  1
  Ag  Ag33  1  0.93892517  0.43898903  0.93917122  1
  Ag  Ag34  1  0.43892517  0.43898903  0.43917122  1
  Ag  Ag35  1  0.43892517  0.43898903  0.93917122  1
  Ag  Ag36  1  0.68892517  0.18898903  0.43917122  1
  Ag  Ag37  1  0.68892517  0.18898903  0.93917122  1
  Ag  Ag38  1  0.93892517  -0.06101097  0.43917122  1
  Ag  Ag39  1  0.93892517  -0.06101097  0.93917122  1
  Ag  Ag40  1  0.18892517  0.18898903  0.43917122  1
  Ag  Ag41  1  0.18892517  0.18898903  0.93917122  1
  Ag  Ag42  1  0.43892517  -0.06101097  0.43917122  1
  Ag  Ag43  1  0.43892517  -0.06101097  0.93917122  1
  Ag  Ag44  1  0.68892517  -0.31101097  0.43917122  1
  Ag  Ag45  1  0.68892517  -0.31101097  0.93917122  1
  Ag  Ag46  1  0.18892517  -0.31101097  0.43917122  1
  Ag  Ag47  1  0.18892517  -0.31101097  0.93917122  1
  Ag  Ag48  1  0.56107483  0.56101097  0.18917122  1
  Ag  Ag49  1  0.56107483  0.56101097  0.68917122  1
  Ag  Ag50  1  0.06107483  0.56101097  0.18917122  1
  Ag  Ag51  1  0.06107483  0.56101097  0.68917122  1
  Ag  Ag52  1  0.31107483  0.31101097  0.18917122  1
  Ag  Ag53  1  0.31107483  0.31101097  0.68917122  1
  Ag  Ag54  1  0.56107483  0.06101097  0.18917122  1
  Ag  Ag55  1  0.56107483  0.06101097  0.68917122  1
  Ag  Ag56  1  -0.18892517  0.31101097  0.18917122  1
  Ag  Ag57  1  -0.18892517  0.31101097  0.68917122  1
  Ag  Ag58  1  0.06107483  0.06101097  0.18917122  1
  Ag  Ag59  1  0.06107483  0.06101097  0.68917122  1
  Ag  Ag60  1  0.31107483  -0.18898903  0.18917122  1
  Ag  Ag61  1  0.31107483  -0.18898903  0.68917122  1
  Ag  Ag62  1  -0.18892517  -0.18898903  0.18917122  1
  Ag  Ag63  1  -0.18892517  -0.18898903  0.68917122  1
  Ag  Ag64  1  0.81101097  0.56107483  0.43582878  1
  Ag  Ag65  1  0.81101097  0.56107483  0.93582878  1
  Ag  Ag66  1  0.31101097  0.56107483  0.43582878  1
  Ag  Ag67  1  0.31101097  0.56107483  0.93582878  1
  Ag  Ag68  1  0.56101097  0.31107483  0.43582878  1
  Ag  Ag69  1  0.56101097  0.31107483  0.93582878  1
  Ag  Ag70  1  0.81101097  0.06107483  0.43582878  1
  Ag  Ag71  1  0.81101097  0.06107483  0.93582878  1
  Ag  Ag72  1  0.06101097  0.31107483  0.43582878  1
  Ag  Ag73  1  0.06101097  0.31107483  0.93582878  1
  Ag  Ag74  1  0.31101097  0.06107483  0.43582878  1
  Ag  Ag75  1  0.31101097  0.06107483  0.93582878  1
  Ag  Ag76  1  0.56101097  -0.18892517  0.43582878  1
  Ag  Ag77  1  0.56101097  -0.18892517  0.93582878  1
  Ag  Ag78  1  0.06101097  -0.18892517  0.43582878  1
  Ag  Ag79  1  0.06101097  -0.18892517  0.93582878  1
  Ag  Ag80  1  0.56107483  0.43898903  0.06082878  1
  Ag  Ag81  1  0.56107483  0.43898903  0.56082878  1
  Ag  Ag82  1  0.06107483  0.43898903  0.06082878  1
  Ag  Ag83  1  0.06107483  0.43898903  0.56082878  1
  Ag  Ag84  1  0.31107483  0.18898903  0.06082878  1
  Ag  Ag85  1  0.31107483  0.18898903  0.56082878  1
  Ag  Ag86  1  0.56107483  -0.06101097  0.06082878  1
  Ag  Ag87  1  0.56107483  -0.06101097  0.56082878  1
  Ag  Ag88  1  -0.18892517  0.18898903  0.06082878  1
  Ag  Ag89  1  -0.18892517  0.18898903  0.56082878  1
  Ag  Ag90  1  0.06107483  -0.06101097  0.06082878  1
  Ag  Ag91  1  0.06107483  -0.06101097  0.56082878  1
  Ag  Ag92  1  0.31107483  -0.31101097  0.06082878  1
  Ag  Ag93  1  0.31107483  -0.31101097  0.56082878  1
  Ag  Ag94  1  -0.18892517  -0.31101097  0.06082878  1
  Ag  Ag95  1  -0.18892517  -0.31101097  0.56082878  1
  Ag  Ag96  1  0.68898903  0.56107483  0.06417122  1
  Ag  Ag97  1  0.68898903  0.56107483  0.56417122  1
  Ag  Ag98  1  0.18898903  0.56107483  0.06417122  1
  Ag  Ag99  1  0.18898903  0.56107483  0.56417122  1
  Ag  Ag100  1  0.43898903  0.31107483  0.06417122  1
  Ag  Ag101  1  0.43898903  0.31107483  0.56417122  1
  Ag  Ag102  1  0.68898903  0.06107483  0.06417122  1
  Ag  Ag103  1  0.68898903  0.06107483  0.56417122  1
  Ag  Ag104  1  -0.06101097  0.31107483  0.06417122  1
  Ag  Ag105  1  -0.06101097  0.31107483  0.56417122  1
  Ag  Ag106  1  0.18898903  0.06107483  0.06417122  1
  Ag  Ag107  1  0.18898903  0.06107483  0.56417122  1
  Ag  Ag108  1  0.43898903  -0.18892517  0.06417122  1
  Ag  Ag109  1  0.43898903  -0.18892517  0.56417122  1
  Ag  Ag110  1  -0.06101097  -0.18892517  0.06417122  1
  Ag  Ag111  1  -0.06101097  -0.18892517  0.56417122  1
  Ag  Ag112  1  0.68898903  0.43892517  0.18582878  1
  Ag  Ag113  1  0.68898903  0.43892517  0.68582878  1
  Ag  Ag114  1  0.18898903  0.43892517  0.18582878  1
  Ag  Ag115  1  0.18898903  0.43892517  0.68582878  1
  Ag  Ag116  1  0.43898903  0.18892517  0.18582878  1
  Ag  Ag117  1  0.43898903  0.18892517  0.68582878  1
  Ag  Ag118  1  0.68898903  -0.06107483  0.18582878  1
  Ag  Ag119  1  0.68898903  -0.06107483  0.68582878  1
  Ag  Ag120  1  -0.06101097  0.18892517  0.18582878  1
  Ag  Ag121  1  -0.06101097  0.18892517  0.68582878  1
  Ag  Ag122  1  0.18898903  -0.06107483  0.18582878  1
  Ag  Ag123  1  0.18898903  -0.06107483  0.68582878  1
  Ag  Ag124  1  0.43898903  -0.31107483  0.18582878  1
  Ag  Ag125  1  0.43898903  -0.31107483  0.68582878  1
  Ag  Ag126  1  -0.06101097  -0.31107483  0.18582878  1
  Ag  Ag127  1  -0.06101097  -0.31107483  0.68582878  1
  Hg  Hg128  1  0.75000000  0.64647925  0.25000000  1
  Hg  Hg129  1  0.75000000  0.64647925  0.75000000  1
  Hg  Hg130  1  0.25000000  0.64647925  0.25000000  1
  Hg  Hg131  1  0.25000000  0.64647925  0.75000000  1
  Hg  Hg132  1  0.50000000  0.39647925  0.25000000  1
  Hg  Hg133  1  0.50000000  0.39647925  0.75000000  1
  Hg  Hg134  1  0.75000000  0.14647925  0.25000000  1
  Hg  Hg135  1  0.75000000  0.14647925  0.75000000  1
  Hg  Hg136  1  -0.00000000  0.39647925  0.25000000  1
  Hg  Hg137  1  -0.00000000  0.39647925  0.75000000  1
  Hg  Hg138  1  0.25000000  0.14647925  0.25000000  1
  Hg  Hg139  1  0.25000000  0.14647925  0.75000000  1
  Hg  Hg140  1  0.50000000  -0.10352075  0.25000000  1
  Hg  Hg141  1  0.50000000  -0.10352075  0.75000000  1
  Hg  Hg142  1  0.00000000  -0.10352075  0.25000000  1
  Hg  Hg143  1  0.00000000  -0.10352075  0.75000000  1
  Hg  Hg144  1  0.85352075  0.50000000  0.12500000  1
  Hg  Hg145  1  0.85352075  0.50000000  0.62500000  1
  Hg  Hg146  1  0.35352075  0.50000000  0.12500000  1
  Hg  Hg147  1  0.35352075  0.50000000  0.62500000  1
  Hg  Hg148  1  0.60352075  0.25000000  0.12500000  1
  Hg  Hg149  1  0.60352075  0.25000000  0.62500000  1
  Hg  Hg150  1  0.85352075  0.00000000  0.12500000  1
  Hg  Hg151  1  0.85352075  0.00000000  0.62500000  1
  Hg  Hg152  1  0.10352075  0.25000000  0.12500000  1
  Hg  Hg153  1  0.10352075  0.25000000  0.62500000  1
  Hg  Hg154  1  0.35352075  -0.00000000  0.12500000  1
  Hg  Hg155  1  0.35352075  -0.00000000  0.62500000  1
  Hg  Hg156  1  0.60352075  -0.25000000  0.12500000  1
  Hg  Hg157  1  0.60352075  -0.25000000  0.62500000  1
  Hg  Hg158  1  0.10352075  -0.25000000  0.12500000  1
  Hg  Hg159  1  0.10352075  -0.25000000  0.62500000  1
  Hg  Hg160  1  0.64647925  0.50000000  0.37500000  1
  Hg  Hg161  1  0.64647925  0.50000000  0.87500000  1
  Hg  Hg162  1  0.14647925  0.50000000  0.37500000  1
  Hg  Hg163  1  0.14647925  0.50000000  0.87500000  1
  Hg  Hg164  1  0.39647925  0.25000000  0.37500000  1
  Hg  Hg165  1  0.39647925  0.25000000  0.87500000  1
  Hg  Hg166  1  0.64647925  -0.00000000  0.37500000  1
  Hg  Hg167  1  0.64647925  -0.00000000  0.87500000  1
  Hg  Hg168  1  -0.10352075  0.25000000  0.37500000  1
  Hg  Hg169  1  -0.10352075  0.25000000  0.87500000  1
  Hg  Hg170  1  0.14647925  -0.00000000  0.37500000  1
  Hg  Hg171  1  0.14647925  -0.00000000  0.87500000  1
  Hg  Hg172  1  0.39647925  -0.25000000  0.37500000  1
  Hg  Hg173  1  0.39647925  -0.25000000  0.87500000  1
  Hg  Hg174  1  -0.10352075  -0.25000000  0.37500000  1
  Hg  Hg175  1  -0.10352075  -0.25000000  0.87500000  1
  Hg  Hg176  1  0.75000000  0.35352075  0.00000000  1
  Hg  Hg177  1  0.75000000  0.35352075  0.50000000  1
  Hg  Hg178  1  0.25000000  0.35352075  0.00000000  1
  Hg  Hg179  1  0.25000000  0.35352075  0.50000000  1
  Hg  Hg180  1  0.50000000  0.10352075  0.00000000  1
  Hg  Hg181  1  0.50000000  0.10352075  0.50000000  1
  Hg  Hg182  1  0.75000000  -0.14647925  0.00000000  1
  Hg  Hg183  1  0.75000000  -0.14647925  0.50000000  1
  Hg  Hg184  1  0.00000000  0.10352075  0.00000000  1
  Hg  Hg185  1  0.00000000  0.10352075  0.50000000  1
  Hg  Hg186  1  0.25000000  -0.14647925  0.00000000  1
  Hg  Hg187  1  0.25000000  -0.14647925  0.50000000  1
  Hg  Hg188  1  0.50000000  -0.39647925  0.00000000  1
  Hg  Hg189  1  0.50000000  -0.39647925  0.50000000  1
  Hg  Hg190  1  0.00000000  -0.39647925  0.00000000  1
  Hg  Hg191  1  0.00000000  -0.39647925  0.50000000  1
  O  O192  1  0.84151389  0.53386233  0.24303282  1
  O  O193  1  0.84151389  0.53386233  0.74303282  1
  O  O194  1  0.34151389  0.53386233  0.24303282  1
  O  O195  1  0.34151389  0.53386233  0.74303282  1
  O  O196  1  0.59151389  0.28386233  0.24303282  1
  O  O197  1  0.59151389  0.28386233  0.74303282  1
  O  O198  1  0.84151389  0.03386233  0.24303282  1
  O  O199  1  0.84151389  0.03386233  0.74303282  1
  O  O200  1  0.09151389  0.28386233  0.24303282  1
  O  O201  1  0.09151389  0.28386233  0.74303282  1
  O  O202  1  0.34151389  0.03386233  0.24303282  1
  O  O203  1  0.34151389  0.03386233  0.74303282  1
  O  O204  1  0.59151389  -0.21613767  0.24303282  1
  O  O205  1  0.59151389  -0.21613767  0.74303282  1
  O  O206  1  0.09151389  -0.21613767  0.24303282  1
  O  O207  1  0.09151389  -0.21613767  0.74303282  1
  O  O208  1  0.65848611  0.46613767  0.49303282  1
  O  O209  1  0.65848611  0.46613767  0.99303282  1
  O  O210  1  0.15848611  0.46613767  0.49303282  1
  O  O211  1  0.15848611  0.46613767  0.99303282  1
  O  O212  1  0.40848611  0.21613767  0.49303282  1
  O  O213  1  0.40848611  0.21613767  0.99303282  1
  O  O214  1  0.65848611  -0.03386233  0.49303282  1
  O  O215  1  0.65848611  -0.03386233  0.99303282  1
  O  O216  1  -0.09151389  0.21613767  0.49303282  1
  O  O217  1  -0.09151389  0.21613767  0.99303282  1
  O  O218  1  0.15848611  -0.03386233  0.49303282  1
  O  O219  1  0.15848611  -0.03386233  0.99303282  1
  O  O220  1  0.40848611  -0.28386233  0.49303282  1
  O  O221  1  0.40848611  -0.28386233  0.99303282  1
  O  O222  1  -0.09151389  -0.28386233  0.49303282  1
  O  O223  1  -0.09151389  -0.28386233  0.99303282  1
  O  O224  1  0.65848611  0.53386233  0.25696718  1
  O  O225  1  0.65848611  0.53386233  0.75696718  1
  O  O226  1  0.15848611  0.53386233  0.25696718  1
  O  O227  1  0.15848611  0.53386233  0.75696718  1
  O  O228  1  0.40848611  0.28386233  0.25696718  1
  O  O229  1  0.40848611  0.28386233  0.75696718  1
  O  O230  1  0.65848611  0.03386233  0.25696718  1
  O  O231  1  0.65848611  0.03386233  0.75696718  1
  O  O232  1  -0.09151389  0.28386233  0.25696718  1
  O  O233  1  -0.09151389  0.28386233  0.75696718  1
  O  O234  1  0.15848611  0.03386233  0.25696718  1
  O  O235  1  0.15848611  0.03386233  0.75696718  1
  O  O236  1  0.40848611  -0.21613767  0.25696718  1
  O  O237  1  0.40848611  -0.21613767  0.75696718  1
  O  O238  1  -0.09151389  -0.21613767  0.25696718  1
  O  O239  1  -0.09151389  -0.21613767  0.75696718  1
  O  O240  1  0.78386233  0.65848611  0.36803282  1
  O  O241  1  0.78386233  0.65848611  0.86803282  1
  O  O242  1  0.28386233  0.65848611  0.36803282  1
  O  O243  1  0.28386233  0.65848611  0.86803282  1
  O  O244  1  0.53386233  0.40848611  0.36803282  1
  O  O245  1  0.53386233  0.40848611  0.86803282  1
  O  O246  1  0.78386233  0.15848611  0.36803282  1
  O  O247  1  0.78386233  0.15848611  0.86803282  1
  O  O248  1  0.03386233  0.40848611  0.36803282  1
  O  O249  1  0.03386233  0.40848611  0.86803282  1
  O  O250  1  0.28386233  0.15848611  0.36803282  1
  O  O251  1  0.28386233  0.15848611  0.86803282  1
  O  O252  1  0.53386233  -0.09151389  0.36803282  1
  O  O253  1  0.53386233  -0.09151389  0.86803282  1
  O  O254  1  0.03386233  -0.09151389  0.36803282  1
  O  O255  1  0.03386233  -0.09151389  0.86803282  1
  O  O256  1  0.78386233  0.34151389  0.38196718  1
  O  O257  1  0.78386233  0.34151389  0.88196718  1
  O  O258  1  0.28386233  0.34151389  0.38196718  1
  O  O259  1  0.28386233  0.34151389  0.88196718  1
  O  O260  1  0.53386233  0.09151389  0.38196718  1
  O  O261  1  0.53386233  0.09151389  0.88196718  1
  O  O262  1  0.78386233  -0.15848611  0.38196718  1
  O  O263  1  0.78386233  -0.15848611  0.88196718  1
  O  O264  1  0.03386233  0.09151389  0.38196718  1
  O  O265  1  0.03386233  0.09151389  0.88196718  1
  O  O266  1  0.28386233  -0.15848611  0.38196718  1
  O  O267  1  0.28386233  -0.15848611  0.88196718  1
  O  O268  1  0.53386233  -0.40848611  0.38196718  1
  O  O269  1  0.53386233  -0.40848611  0.88196718  1
  O  O270  1  0.03386233  -0.40848611  0.38196718  1
  O  O271  1  0.03386233  -0.40848611  0.88196718  1
  O  O272  1  0.84151389  0.46613767  0.00696718  1
  O  O273  1  0.84151389  0.46613767  0.50696718  1
  O  O274  1  0.34151389  0.46613767  0.00696718  1
  O  O275  1  0.34151389  0.46613767  0.50696718  1
  O  O276  1  0.59151389  0.21613767  0.00696718  1
  O  O277  1  0.59151389  0.21613767  0.50696718  1
  O  O278  1  0.84151389  -0.03386233  0.00696718  1
  O  O279  1  0.84151389  -0.03386233  0.50696718  1
  O  O280  1  0.09151389  0.21613767  0.00696718  1
  O  O281  1  0.09151389  0.21613767  0.50696718  1
  O  O282  1  0.34151389  -0.03386233  0.00696718  1
  O  O283  1  0.34151389  -0.03386233  0.50696718  1
  O  O284  1  0.59151389  -0.28386233  0.00696718  1
  O  O285  1  0.59151389  -0.28386233  0.50696718  1
  O  O286  1  0.09151389  -0.28386233  0.00696718  1
  O  O287  1  0.09151389  -0.28386233  0.50696718  1
  O  O288  1  0.71613767  0.34151389  0.11803282  1
  O  O289  1  0.71613767  0.34151389  0.61803282  1
  O  O290  1  0.21613767  0.34151389  0.11803282  1
  O  O291  1  0.21613767  0.34151389  0.61803282  1
  O  O292  1  0.46613767  0.09151389  0.11803282  1
  O  O293  1  0.46613767  0.09151389  0.61803282  1
  O  O294  1  0.71613767  -0.15848611  0.11803282  1
  O  O295  1  0.71613767  -0.15848611  0.61803282  1
  O  O296  1  -0.03386233  0.09151389  0.11803282  1
  O  O297  1  -0.03386233  0.09151389  0.61803282  1
  O  O298  1  0.21613767  -0.15848611  0.11803282  1
  O  O299  1  0.21613767  -0.15848611  0.61803282  1
  O  O300  1  0.46613767  -0.40848611  0.11803282  1
  O  O301  1  0.46613767  -0.40848611  0.61803282  1
  O  O302  1  -0.03386233  -0.40848611  0.11803282  1
  O  O303  1  -0.03386233  -0.40848611  0.61803282  1
  O  O304  1  0.71613767  0.65848611  0.13196718  1
  O  O305  1  0.71613767  0.65848611  0.63196718  1
  O  O306  1  0.21613767  0.65848611  0.13196718  1
  O  O307  1  0.21613767  0.65848611  0.63196718  1
  O  O308  1  0.46613767  0.40848611  0.13196718  1
  O  O309  1  0.46613767  0.40848611  0.63196718  1
  O  O310  1  0.71613767  0.15848611  0.13196718  1
  O  O311  1  0.71613767  0.15848611  0.63196718  1
  O  O312  1  -0.03386233  0.40848611  0.13196718  1
  O  O313  1  -0.03386233  0.40848611  0.63196718  1
  O  O314  1  0.21613767  0.15848611  0.13196718  1
  O  O315  1  0.21613767  0.15848611  0.63196718  1
  O  O316  1  0.46613767  -0.09151389  0.13196718  1
  O  O317  1  0.46613767  -0.09151389  0.63196718  1
  O  O318  1  -0.03386233  -0.09151389  0.13196718  1
  O  O319  1  -0.03386233  -0.09151389  0.63196718  1
