# generated using pymatgen
data_BaZnO2
_symmetry_space_group_name_H-M   'P 1'
_cell_length_a   17.48323517
_cell_length_b   17.48323517
_cell_length_c   19.97592940
_cell_angle_alpha   90.00000000
_cell_angle_beta   90.00000000
_cell_angle_gamma   120.00000000
_symmetry_Int_Tables_number   1
_chemical_formula_structural   BaZnO2
_chemical_formula_sum   'Ba81 Zn81 O162'
_cell_volume   5287.87554495
_cell_formula_units_Z   81
loop_
 _symmetry_equiv_pos_site_id
 _symmetry_equiv_pos_as_xyz
  1  'x, y, z'
loop_
 _atom_site_type_symbol
 _atom_site_label
 _atom_site_symmetry_multiplicity
 _atom_site_fract_x
 _atom_site_fract_y
 _atom_site_fract_z
 _atom_site_occupancy
  Ba  Ba0  1  0.21760550  0.00000000  0.27777778  1
  Ba  Ba1  1  0.21760550  0.00000000  0.61111111  1
  Ba  Ba2  1  0.21760550  0.00000000  0.94444444  1
  Ba  Ba3  1  0.21760550  0.33333333  0.27777778  1
  Ba  Ba4  1  0.21760550  0.33333333  0.61111111  1
  Ba  Ba5  1  0.21760550  0.33333333  0.94444444  1
  Ba  Ba6  1  0.21760550  0.66666667  0.27777778  1
  Ba  Ba7  1  0.21760550  0.66666667  0.61111111  1
  Ba  Ba8  1  0.21760550  0.66666667  0.94444444  1
  Ba  Ba9  1  0.55093883  0.00000000  0.27777778  1
  Ba  Ba10  1  0.55093883  0.00000000  0.61111111  1
  Ba  Ba11  1  0.55093883  0.00000000  0.94444444  1
  Ba  Ba12  1  0.55093883  0.33333333  0.27777778  1
  Ba  Ba13  1  0.55093883  0.33333333  0.61111111  1
  Ba  Ba14  1  0.55093883  0.33333333  0.94444444  1
  Ba  Ba15  1  0.55093883  0.66666667  0.27777778  1
  Ba  Ba16  1  0.55093883  0.66666667  0.61111111  1
  Ba  Ba17  1  0.55093883  0.66666667  0.94444444  1
  Ba  Ba18  1  0.88427216  0.00000000  0.27777778  1
  Ba  Ba19  1  0.88427216  0.00000000  0.61111111  1
  Ba  Ba20  1  0.88427216  0.00000000  0.94444444  1
  Ba  Ba21  1  0.88427216  0.33333333  0.27777778  1
  Ba  Ba22  1  0.88427216  0.33333333  0.61111111  1
  Ba  Ba23  1  0.88427216  0.33333333  0.94444444  1
  Ba  Ba24  1  0.88427216  0.66666667  0.27777778  1
  Ba  Ba25  1  0.88427216  0.66666667  0.61111111  1
  Ba  Ba26  1  0.88427216  0.66666667  0.94444444  1
  Ba  Ba27  1  -0.00000000  0.21760550  0.05555556  1
  Ba  Ba28  1  -0.00000000  0.21760550  0.38888889  1
  Ba  Ba29  1  -0.00000000  0.21760550  0.72222222  1
  Ba  Ba30  1  -0.00000000  0.55093883  0.05555556  1
  Ba  Ba31  1  -0.00000000  0.55093883  0.38888889  1
  Ba  Ba32  1  -0.00000000  0.55093883  0.72222222  1
  Ba  Ba33  1  -0.00000000  0.88427216  0.05555556  1
  Ba  Ba34  1  -0.00000000  0.88427216  0.38888889  1
  Ba  Ba35  1  -0.00000000  0.88427216  0.72222222  1
  Ba  Ba36  1  0.33333333  0.21760550  0.05555556  1
  Ba  Ba37  1  0.33333333  0.21760550  0.38888889  1
  Ba  Ba38  1  0.33333333  0.21760550  0.72222222  1
  Ba  Ba39  1  0.33333333  0.55093883  0.05555556  1
  Ba  Ba40  1  0.33333333  0.55093883  0.38888889  1
  Ba  Ba41  1  0.33333333  0.55093883  0.72222222  1
  Ba  Ba42  1  0.33333333  0.88427216  0.05555556  1
  Ba  Ba43  1  0.33333333  0.88427216  0.38888889  1
  Ba  Ba44  1  0.33333333  0.88427216  0.72222222  1
  Ba  Ba45  1  0.66666667  0.21760550  0.05555556  1
  Ba  Ba46  1  0.66666667  0.21760550  0.38888889  1
  Ba  Ba47  1  0.66666667  0.21760550  0.72222222  1
  Ba  Ba48  1  0.66666667  0.55093883  0.05555556  1
  Ba  Ba49  1  0.66666667  0.55093883  0.38888889  1
  Ba  Ba50  1  0.66666667  0.55093883  0.72222222  1
  Ba  Ba51  1  0.66666667  0.88427216  0.05555556  1
  Ba  Ba52  1  0.66666667  0.88427216  0.38888889  1
  Ba  Ba53  1  0.66666667  0.88427216  0.72222222  1
  Ba  Ba54  1  0.11572784  0.11572784  0.16666667  1
  Ba  Ba55  1  0.11572784  0.11572784  0.50000000  1
  Ba  Ba56  1  0.11572784  0.11572784  0.83333333  1
  Ba  Ba57  1  0.11572784  0.44906117  0.16666667  1
  Ba  Ba58  1  0.11572784  0.44906117  0.50000000  1
  Ba  Ba59  1  0.11572784  0.44906117  0.83333333  1
  Ba  Ba60  1  0.11572784  0.78239450  0.16666667  1
  Ba  Ba61  1  0.11572784  0.78239450  0.50000000  1
  Ba  Ba62  1  0.11572784  0.78239450  0.83333333  1
  Ba  Ba63  1  0.44906117  0.11572784  0.16666667  1
  Ba  Ba64  1  0.44906117  0.11572784  0.50000000  1
  Ba  Ba65  1  0.44906117  0.11572784  0.83333333  1
  Ba  Ba66  1  0.44906117  0.44906117  0.16666667  1
  Ba  Ba67  1  0.44906117  0.44906117  0.50000000  1
  Ba  Ba68  1  0.44906117  0.44906117  0.83333333  1
  Ba  Ba69  1  0.44906117  0.78239450  0.16666667  1
  Ba  Ba70  1  0.44906117  0.78239450  0.50000000  1
  Ba  Ba71  1  0.44906117  0.78239450  0.83333333  1
  Ba  Ba72  1  0.78239450  0.11572784  0.16666667  1
  Ba  Ba73  1  0.78239450  0.11572784  0.50000000  1
  Ba  Ba74  1  0.78239450  0.11572784  0.83333333  1
  Ba  Ba75  1  0.78239450  0.44906117  0.16666667  1
  Ba  Ba76  1  0.78239450  0.44906117  0.50000000  1
  Ba  Ba77  1  0.78239450  0.44906117  0.83333333  1
  Ba  Ba78  1  0.78239450  0.78239450  0.16666667  1
  Ba  Ba79  1  0.78239450  0.78239450  0.50000000  1
  Ba  Ba80  1  0.78239450  0.78239450  0.83333333  1
  Zn  Zn81  1  0.14090807  0.14090807  0.00000000  1
  Zn  Zn82  1  0.14090807  0.14090807  0.33333333  1
  Zn  Zn83  1  0.14090807  0.14090807  0.66666667  1
  Zn  Zn84  1  0.14090807  0.47424140  0.00000000  1
  Zn  Zn85  1  0.14090807  0.47424140  0.33333333  1
  Zn  Zn86  1  0.14090807  0.47424140  0.66666667  1
  Zn  Zn87  1  0.14090807  0.80757473  0.00000000  1
  Zn  Zn88  1  0.14090807  0.80757473  0.33333333  1
  Zn  Zn89  1  0.14090807  0.80757473  0.66666667  1
  Zn  Zn90  1  0.47424140  0.14090807  0.00000000  1
  Zn  Zn91  1  0.47424140  0.14090807  0.33333333  1
  Zn  Zn92  1  0.47424140  0.14090807  0.66666667  1
  Zn  Zn93  1  0.47424140  0.47424140  0.00000000  1
  Zn  Zn94  1  0.47424140  0.47424140  0.33333333  1
  Zn  Zn95  1  0.47424140  0.47424140  0.66666667  1
  Zn  Zn96  1  0.47424140  0.80757473  0.00000000  1
  Zn  Zn97  1  0.47424140  0.80757473  0.33333333  1
  Zn  Zn98  1  0.47424140  0.80757473  0.66666667  1
  Zn  Zn99  1  0.80757473  0.14090807  0.00000000  1
  Zn  Zn100  1  0.80757473  0.14090807  0.33333333  1
  Zn  Zn101  1  0.80757473  0.14090807  0.66666667  1
  Zn  Zn102  1  0.80757473  0.47424140  0.00000000  1
  Zn  Zn103  1  0.80757473  0.47424140  0.33333333  1
  Zn  Zn104  1  0.80757473  0.47424140  0.66666667  1
  Zn  Zn105  1  0.80757473  0.80757473  0.00000000  1
  Zn  Zn106  1  0.80757473  0.80757473  0.33333333  1
  Zn  Zn107  1  0.80757473  0.80757473  0.66666667  1
  Zn  Zn108  1  -0.00000000  0.19242527  0.22222222  1
  Zn  Zn109  1  -0.00000000  0.19242527  0.55555556  1
  Zn  Zn110  1  -0.00000000  0.19242527  0.88888889  1
  Zn  Zn111  1  -0.00000000  0.52575860  0.22222222  1
  Zn  Zn112  1  -0.00000000  0.52575860  0.55555556  1
  Zn  Zn113  1  -0.00000000  0.52575860  0.88888889  1
  Zn  Zn114  1  -0.00000000  0.85909193  0.22222222  1
  Zn  Zn115  1  -0.00000000  0.85909193  0.55555556  1
  Zn  Zn116  1  -0.00000000  0.85909193  0.88888889  1
  Zn  Zn117  1  0.33333333  0.19242527  0.22222222  1
  Zn  Zn118  1  0.33333333  0.19242527  0.55555556  1
  Zn  Zn119  1  0.33333333  0.19242527  0.88888889  1
  Zn  Zn120  1  0.33333333  0.52575860  0.22222222  1
  Zn  Zn121  1  0.33333333  0.52575860  0.55555556  1
  Zn  Zn122  1  0.33333333  0.52575860  0.88888889  1
  Zn  Zn123  1  0.33333333  0.85909193  0.22222222  1
  Zn  Zn124  1  0.33333333  0.85909193  0.55555556  1
  Zn  Zn125  1  0.33333333  0.85909193  0.88888889  1
  Zn  Zn126  1  0.66666667  0.19242527  0.22222222  1
  Zn  Zn127  1  0.66666667  0.19242527  0.55555556  1
  Zn  Zn128  1  0.66666667  0.19242527  0.88888889  1
  Zn  Zn129  1  0.66666667  0.52575860  0.22222222  1
  Zn  Zn130  1  0.66666667  0.52575860  0.55555556  1
  Zn  Zn131  1  0.66666667  0.52575860  0.88888889  1
  Zn  Zn132  1  0.66666667  0.85909193  0.22222222  1
  Zn  Zn133  1  0.66666667  0.85909193  0.55555556  1
  Zn  Zn134  1  0.66666667  0.85909193  0.88888889  1
  Zn  Zn135  1  0.19242527  0.00000000  0.11111111  1
  Zn  Zn136  1  0.19242527  0.00000000  0.44444444  1
  Zn  Zn137  1  0.19242527  0.00000000  0.77777778  1
  Zn  Zn138  1  0.19242527  0.33333333  0.11111111  1
  Zn  Zn139  1  0.19242527  0.33333333  0.44444444  1
  Zn  Zn140  1  0.19242527  0.33333333  0.77777778  1
  Zn  Zn141  1  0.19242527  0.66666667  0.11111111  1
  Zn  Zn142  1  0.19242527  0.66666667  0.44444444  1
  Zn  Zn143  1  0.19242527  0.66666667  0.77777778  1
  Zn  Zn144  1  0.52575860  0.00000000  0.11111111  1
  Zn  Zn145  1  0.52575860  0.00000000  0.44444444  1
  Zn  Zn146  1  0.52575860  0.00000000  0.77777778  1
  Zn  Zn147  1  0.52575860  0.33333333  0.11111111  1
  Zn  Zn148  1  0.52575860  0.33333333  0.44444444  1
  Zn  Zn149  1  0.52575860  0.33333333  0.77777778  1
  Zn  Zn150  1  0.52575860  0.66666667  0.11111111  1
  Zn  Zn151  1  0.52575860  0.66666667  0.44444444  1
  Zn  Zn152  1  0.52575860  0.66666667  0.77777778  1
  Zn  Zn153  1  0.85909193  0.00000000  0.11111111  1
  Zn  Zn154  1  0.85909193  0.00000000  0.44444444  1
  Zn  Zn155  1  0.85909193  0.00000000  0.77777778  1
  Zn  Zn156  1  0.85909193  0.33333333  0.11111111  1
  Zn  Zn157  1  0.85909193  0.33333333  0.44444444  1
  Zn  Zn158  1  0.85909193  0.33333333  0.77777778  1
  Zn  Zn159  1  0.85909193  0.66666667  0.11111111  1
  Zn  Zn160  1  0.85909193  0.66666667  0.44444444  1
  Zn  Zn161  1  0.85909193  0.66666667  0.77777778  1
  O  O162  1  0.04488672  0.14197030  0.29056098  1
  O  O163  1  0.04488672  0.14197030  0.62389431  1
  O  O164  1  0.04488672  0.14197030  0.95722765  1
  O  O165  1  0.04488672  0.47530363  0.29056098  1
  O  O166  1  0.04488672  0.47530363  0.62389431  1
  O  O167  1  0.04488672  0.47530363  0.95722765  1
  O  O168  1  0.04488672  0.80863696  0.29056098  1
  O  O169  1  0.04488672  0.80863696  0.62389431  1
  O  O170  1  0.04488672  0.80863696  0.95722765  1
  O  O171  1  0.37822005  0.14197030  0.29056098  1
  O  O172  1  0.37822005  0.14197030  0.62389431  1
  O  O173  1  0.37822005  0.14197030  0.95722765  1
  O  O174  1  0.37822005  0.47530363  0.29056098  1
  O  O175  1  0.37822005  0.47530363  0.62389431  1
  O  O176  1  0.37822005  0.47530363  0.95722765  1
  O  O177  1  0.37822005  0.80863696  0.29056098  1
  O  O178  1  0.37822005  0.80863696  0.62389431  1
  O  O179  1  0.37822005  0.80863696  0.95722765  1
  O  O180  1  0.71155339  0.14197030  0.29056098  1
  O  O181  1  0.71155339  0.14197030  0.62389431  1
  O  O182  1  0.71155339  0.14197030  0.95722765  1
  O  O183  1  0.71155339  0.47530363  0.29056098  1
  O  O184  1  0.71155339  0.47530363  0.62389431  1
  O  O185  1  0.71155339  0.47530363  0.95722765  1
  O  O186  1  0.71155339  0.80863696  0.29056098  1
  O  O187  1  0.71155339  0.80863696  0.62389431  1
  O  O188  1  0.71155339  0.80863696  0.95722765  1
  O  O189  1  0.19136304  0.23624976  0.06833876  1
  O  O190  1  0.19136304  0.23624976  0.40167209  1
  O  O191  1  0.19136304  0.23624976  0.73500543  1
  O  O192  1  0.19136304  0.56958309  0.06833876  1
  O  O193  1  0.19136304  0.56958309  0.40167209  1
  O  O194  1  0.19136304  0.56958309  0.73500543  1
  O  O195  1  0.19136304  0.90291642  0.06833876  1
  O  O196  1  0.19136304  0.90291642  0.40167209  1
  O  O197  1  0.19136304  0.90291642  0.73500543  1
  O  O198  1  0.52469637  0.23624976  0.06833876  1
  O  O199  1  0.52469637  0.23624976  0.40167209  1
  O  O200  1  0.52469637  0.23624976  0.73500543  1
  O  O201  1  0.52469637  0.56958309  0.06833876  1
  O  O202  1  0.52469637  0.56958309  0.40167209  1
  O  O203  1  0.52469637  0.56958309  0.73500543  1
  O  O204  1  0.52469637  0.90291642  0.06833876  1
  O  O205  1  0.52469637  0.90291642  0.40167209  1
  O  O206  1  0.52469637  0.90291642  0.73500543  1
  O  O207  1  0.85802970  0.23624976  0.06833876  1
  O  O208  1  0.85802970  0.23624976  0.40167209  1
  O  O209  1  0.85802970  0.23624976  0.73500543  1
  O  O210  1  0.85802970  0.56958309  0.06833876  1
  O  O211  1  0.85802970  0.56958309  0.40167209  1
  O  O212  1  0.85802970  0.56958309  0.73500543  1
  O  O213  1  0.85802970  0.90291642  0.06833876  1
  O  O214  1  0.85802970  0.90291642  0.40167209  1
  O  O215  1  0.85802970  0.90291642  0.73500543  1
  O  O216  1  0.09708358  0.28844661  0.17944987  1
  O  O217  1  0.09708358  0.28844661  0.51278320  1
  O  O218  1  0.09708358  0.28844661  0.84611654  1
  O  O219  1  0.09708358  0.62177995  0.17944987  1
  O  O220  1  0.09708358  0.62177995  0.51278320  1
  O  O221  1  0.09708358  0.62177995  0.84611654  1
  O  O222  1  0.09708358  0.95511328  0.17944987  1
  O  O223  1  0.09708358  0.95511328  0.51278320  1
  O  O224  1  0.09708358  0.95511328  0.84611654  1
  O  O225  1  0.43041691  0.28844661  0.17944987  1
  O  O226  1  0.43041691  0.28844661  0.51278320  1
  O  O227  1  0.43041691  0.28844661  0.84611654  1
  O  O228  1  0.43041691  0.62177995  0.17944987  1
  O  O229  1  0.43041691  0.62177995  0.51278320  1
  O  O230  1  0.43041691  0.62177995  0.84611654  1
  O  O231  1  0.43041691  0.95511328  0.17944987  1
  O  O232  1  0.43041691  0.95511328  0.51278320  1
  O  O233  1  0.43041691  0.95511328  0.84611654  1
  O  O234  1  0.76375024  0.28844661  0.17944987  1
  O  O235  1  0.76375024  0.28844661  0.51278320  1
  O  O236  1  0.76375024  0.28844661  0.84611654  1
  O  O237  1  0.76375024  0.62177995  0.17944987  1
  O  O238  1  0.76375024  0.62177995  0.51278320  1
  O  O239  1  0.76375024  0.62177995  0.84611654  1
  O  O240  1  0.76375024  0.95511328  0.17944987  1
  O  O241  1  0.76375024  0.95511328  0.51278320  1
  O  O242  1  0.76375024  0.95511328  0.84611654  1
  O  O243  1  0.23624976  0.19136304  0.26499457  1
  O  O244  1  0.23624976  0.19136304  0.59832791  1
  O  O245  1  0.23624976  0.19136304  0.93166124  1
  O  O246  1  0.23624976  0.52469637  0.26499457  1
  O  O247  1  0.23624976  0.52469637  0.59832791  1
  O  O248  1  0.23624976  0.52469637  0.93166124  1
  O  O249  1  0.23624976  0.85802970  0.26499457  1
  O  O250  1  0.23624976  0.85802970  0.59832791  1
  O  O251  1  0.23624976  0.85802970  0.93166124  1
  O  O252  1  0.56958309  0.19136304  0.26499457  1
  O  O253  1  0.56958309  0.19136304  0.59832791  1
  O  O254  1  0.56958309  0.19136304  0.93166124  1
  O  O255  1  0.56958309  0.52469637  0.26499457  1
  O  O256  1  0.56958309  0.52469637  0.59832791  1
  O  O257  1  0.56958309  0.52469637  0.93166124  1
  O  O258  1  0.56958309  0.85802970  0.26499457  1
  O  O259  1  0.56958309  0.85802970  0.59832791  1
  O  O260  1  0.56958309  0.85802970  0.93166124  1
  O  O261  1  0.90291642  0.19136304  0.26499457  1
  O  O262  1  0.90291642  0.19136304  0.59832791  1
  O  O263  1  0.90291642  0.19136304  0.93166124  1
  O  O264  1  0.90291642  0.52469637  0.26499457  1
  O  O265  1  0.90291642  0.52469637  0.59832791  1
  O  O266  1  0.90291642  0.52469637  0.93166124  1
  O  O267  1  0.90291642  0.85802970  0.26499457  1
  O  O268  1  0.90291642  0.85802970  0.59832791  1
  O  O269  1  0.90291642  0.85802970  0.93166124  1
  O  O270  1  0.14197030  0.04488672  0.04277235  1
  O  O271  1  0.14197030  0.04488672  0.37610569  1
  O  O272  1  0.14197030  0.04488672  0.70943902  1
  O  O273  1  0.14197030  0.37822005  0.04277235  1
  O  O274  1  0.14197030  0.37822005  0.37610569  1
  O  O275  1  0.14197030  0.37822005  0.70943902  1
  O  O276  1  0.14197030  0.71155339  0.04277235  1
  O  O277  1  0.14197030  0.71155339  0.37610569  1
  O  O278  1  0.14197030  0.71155339  0.70943902  1
  O  O279  1  0.47530363  0.04488672  0.04277235  1
  O  O280  1  0.47530363  0.04488672  0.37610569  1
  O  O281  1  0.47530363  0.04488672  0.70943902  1
  O  O282  1  0.47530363  0.37822005  0.04277235  1
  O  O283  1  0.47530363  0.37822005  0.37610569  1
  O  O284  1  0.47530363  0.37822005  0.70943902  1
  O  O285  1  0.47530363  0.71155339  0.04277235  1
  O  O286  1  0.47530363  0.71155339  0.37610569  1
  O  O287  1  0.47530363  0.71155339  0.70943902  1
  O  O288  1  0.80863696  0.04488672  0.04277235  1
  O  O289  1  0.80863696  0.04488672  0.37610569  1
  O  O290  1  0.80863696  0.04488672  0.70943902  1
  O  O291  1  0.80863696  0.37822005  0.04277235  1
  O  O292  1  0.80863696  0.37822005  0.37610569  1
  O  O293  1  0.80863696  0.37822005  0.70943902  1
  O  O294  1  0.80863696  0.71155339  0.04277235  1
  O  O295  1  0.80863696  0.71155339  0.37610569  1
  O  O296  1  0.80863696  0.71155339  0.70943902  1
  O  O297  1  0.28844661  0.09708358  0.15388346  1
  O  O298  1  0.28844661  0.09708358  0.48721680  1
  O  O299  1  0.28844661  0.09708358  0.82055013  1
  O  O300  1  0.28844661  0.43041691  0.15388346  1
  O  O301  1  0.28844661  0.43041691  0.48721680  1
  O  O302  1  0.28844661  0.43041691  0.82055013  1
  O  O303  1  0.28844661  0.76375024  0.15388346  1
  O  O304  1  0.28844661  0.76375024  0.48721680  1
  O  O305  1  0.28844661  0.76375024  0.82055013  1
  O  O306  1  0.62177995  0.09708358  0.15388346  1
  O  O307  1  0.62177995  0.09708358  0.48721680  1
  O  O308  1  0.62177995  0.09708358  0.82055013  1
  O  O309  1  0.62177995  0.43041691  0.15388346  1
  O  O310  1  0.62177995  0.43041691  0.48721680  1
  O  O311  1  0.62177995  0.43041691  0.82055013  1
  O  O312  1  0.62177995  0.76375024  0.15388346  1
  O  O313  1  0.62177995  0.76375024  0.48721680  1
  O  O314  1  0.62177995  0.76375024  0.82055013  1
  O  O315  1  0.95511328  0.09708358  0.15388346  1
  O  O316  1  0.95511328  0.09708358  0.48721680  1
  O  O317  1  0.95511328  0.09708358  0.82055013  1
  O  O318  1  0.95511328  0.43041691  0.15388346  1
  O  O319  1  0.95511328  0.43041691  0.48721680  1
  O  O320  1  0.95511328  0.43041691  0.82055013  1
  O  O321  1  0.95511328  0.76375024  0.15388346  1
  O  O322  1  0.95511328  0.76375024  0.48721680  1
  O  O323  1  0.95511328  0.76375024  0.82055013  1
