# generated using pymatgen
data_TiNb6Tl2O18
_symmetry_space_group_name_H-M   'P 1'
_cell_length_a   15.24131235
_cell_length_b   15.24131235
_cell_length_c   16.56973953
_cell_angle_alpha   90.00000000
_cell_angle_beta   90.00000000
_cell_angle_gamma   120.00000000
_symmetry_Int_Tables_number   1
_chemical_formula_structural   TiNb6Tl2O18
_chemical_formula_sum   'Ti8 Nb48 Tl16 O144'
_cell_volume   3333.42770189
_cell_formula_units_Z   8
loop_
 _symmetry_equiv_pos_site_id
 _symmetry_equiv_pos_as_xyz
  1  'x, y, z'
loop_
 _atom_site_type_symbol
 _atom_site_label
 _atom_site_symmetry_multiplicity
 _atom_site_fract_x
 _atom_site_fract_y
 _atom_site_fract_z
 _atom_site_occupancy
  Ti  Ti0  1  0.00000000  0.00000000  0.25000000  1
  Ti  Ti1  1  0.00000000  0.00000000  0.75000000  1
  Ti  Ti2  1  -0.00000000  0.50000000  0.25000000  1
  Ti  Ti3  1  -0.00000000  0.50000000  0.75000000  1
  Ti  Ti4  1  0.50000000  0.00000000  0.25000000  1
  Ti  Ti5  1  0.50000000  0.00000000  0.75000000  1
  Ti  Ti6  1  0.50000000  0.50000000  0.25000000  1
  Ti  Ti7  1  0.50000000  0.50000000  0.75000000  1
  Nb  Nb8  1  0.41635179  0.08364821  0.42387127  1
  Nb  Nb9  1  0.41635179  0.08364821  0.92387127  1
  Nb  Nb10  1  0.41635179  0.58364821  0.42387127  1
  Nb  Nb11  1  0.41635179  0.58364821  0.92387127  1
  Nb  Nb12  1  0.91635179  0.08364821  0.42387127  1
  Nb  Nb13  1  0.91635179  0.08364821  0.92387127  1
  Nb  Nb14  1  0.91635179  0.58364821  0.42387127  1
  Nb  Nb15  1  0.91635179  0.58364821  0.92387127  1
  Nb  Nb16  1  0.41635179  0.33270358  0.42387127  1
  Nb  Nb17  1  0.41635179  0.33270358  0.92387127  1
  Nb  Nb18  1  0.41635179  0.83270358  0.42387127  1
  Nb  Nb19  1  0.41635179  0.83270358  0.92387127  1
  Nb  Nb20  1  0.91635179  0.33270358  0.42387127  1
  Nb  Nb21  1  0.91635179  0.33270358  0.92387127  1
  Nb  Nb22  1  0.91635179  0.83270358  0.42387127  1
  Nb  Nb23  1  0.91635179  0.83270358  0.92387127  1
  Nb  Nb24  1  0.16729642  0.08364821  0.42387127  1
  Nb  Nb25  1  0.16729642  0.08364821  0.92387127  1
  Nb  Nb26  1  0.16729642  0.58364821  0.42387127  1
  Nb  Nb27  1  0.16729642  0.58364821  0.92387127  1
  Nb  Nb28  1  0.66729642  0.08364821  0.42387127  1
  Nb  Nb29  1  0.66729642  0.08364821  0.92387127  1
  Nb  Nb30  1  0.66729642  0.58364821  0.42387127  1
  Nb  Nb31  1  0.66729642  0.58364821  0.92387127  1
  Nb  Nb32  1  0.08364821  0.41635179  0.07612873  1
  Nb  Nb33  1  0.08364821  0.41635179  0.57612873  1
  Nb  Nb34  1  0.08364821  0.91635179  0.07612873  1
  Nb  Nb35  1  0.08364821  0.91635179  0.57612873  1
  Nb  Nb36  1  0.58364821  0.41635179  0.07612873  1
  Nb  Nb37  1  0.58364821  0.41635179  0.57612873  1
  Nb  Nb38  1  0.58364821  0.91635179  0.07612873  1
  Nb  Nb39  1  0.58364821  0.91635179  0.57612873  1
  Nb  Nb40  1  0.08364821  0.16729642  0.07612873  1
  Nb  Nb41  1  0.08364821  0.16729642  0.57612873  1
  Nb  Nb42  1  0.08364821  0.66729642  0.07612873  1
  Nb  Nb43  1  0.08364821  0.66729642  0.57612873  1
  Nb  Nb44  1  0.58364821  0.16729642  0.07612873  1
  Nb  Nb45  1  0.58364821  0.16729642  0.57612873  1
  Nb  Nb46  1  0.58364821  0.66729642  0.07612873  1
  Nb  Nb47  1  0.58364821  0.66729642  0.57612873  1
  Nb  Nb48  1  0.33270358  0.41635179  0.07612873  1
  Nb  Nb49  1  0.33270358  0.41635179  0.57612873  1
  Nb  Nb50  1  0.33270358  0.91635179  0.07612873  1
  Nb  Nb51  1  0.33270358  0.91635179  0.57612873  1
  Nb  Nb52  1  0.83270358  0.41635179  0.07612873  1
  Nb  Nb53  1  0.83270358  0.41635179  0.57612873  1
  Nb  Nb54  1  0.83270358  0.91635179  0.07612873  1
  Nb  Nb55  1  0.83270358  0.91635179  0.57612873  1
  Tl  Tl56  1  0.33333333  0.16666667  0.13100062  1
  Tl  Tl57  1  0.33333333  0.16666667  0.63100062  1
  Tl  Tl58  1  0.33333333  0.66666667  0.13100062  1
  Tl  Tl59  1  0.33333333  0.66666667  0.63100062  1
  Tl  Tl60  1  0.83333333  0.16666667  0.13100062  1
  Tl  Tl61  1  0.83333333  0.16666667  0.63100062  1
  Tl  Tl62  1  0.83333333  0.66666667  0.13100062  1
  Tl  Tl63  1  0.83333333  0.66666667  0.63100062  1
  Tl  Tl64  1  0.16666667  0.33333333  0.36899938  1
  Tl  Tl65  1  0.16666667  0.33333333  0.86899938  1
  Tl  Tl66  1  0.16666667  0.83333333  0.36899938  1
  Tl  Tl67  1  0.16666667  0.83333333  0.86899938  1
  Tl  Tl68  1  0.66666667  0.33333333  0.36899938  1
  Tl  Tl69  1  0.66666667  0.33333333  0.86899938  1
  Tl  Tl70  1  0.66666667  0.83333333  0.36899938  1
  Tl  Tl71  1  0.66666667  0.83333333  0.86899938  1
  O  O72  1  0.27558801  0.22441199  0.42033292  1
  O  O73  1  0.27558801  0.22441199  0.92033292  1
  O  O74  1  0.27558801  0.72441199  0.42033292  1
  O  O75  1  0.27558801  0.72441199  0.92033292  1
  O  O76  1  0.77558801  0.22441199  0.42033292  1
  O  O77  1  0.77558801  0.22441199  0.92033292  1
  O  O78  1  0.77558801  0.72441199  0.42033292  1
  O  O79  1  0.77558801  0.72441199  0.92033292  1
  O  O80  1  0.27558801  0.05117601  0.42033292  1
  O  O81  1  0.27558801  0.05117601  0.92033292  1
  O  O82  1  0.27558801  0.55117601  0.42033292  1
  O  O83  1  0.27558801  0.55117601  0.92033292  1
  O  O84  1  0.77558801  0.05117601  0.42033292  1
  O  O85  1  0.77558801  0.05117601  0.92033292  1
  O  O86  1  0.77558801  0.55117601  0.42033292  1
  O  O87  1  0.77558801  0.55117601  0.92033292  1
  O  O88  1  0.44882399  0.22441199  0.42033292  1
  O  O89  1  0.44882399  0.22441199  0.92033292  1
  O  O90  1  0.44882399  0.72441199  0.42033292  1
  O  O91  1  0.44882399  0.72441199  0.92033292  1
  O  O92  1  0.94882399  0.22441199  0.42033292  1
  O  O93  1  0.94882399  0.22441199  0.92033292  1
  O  O94  1  0.94882399  0.72441199  0.42033292  1
  O  O95  1  0.94882399  0.72441199  0.92033292  1
  O  O96  1  0.22441199  0.27558801  0.07966708  1
  O  O97  1  0.22441199  0.27558801  0.57966708  1
  O  O98  1  0.22441199  0.77558801  0.07966708  1
  O  O99  1  0.22441199  0.77558801  0.57966708  1
  O  O100  1  0.72441199  0.27558801  0.07966708  1
  O  O101  1  0.72441199  0.27558801  0.57966708  1
  O  O102  1  0.72441199  0.77558801  0.07966708  1
  O  O103  1  0.72441199  0.77558801  0.57966708  1
  O  O104  1  0.22441199  0.44882399  0.07966708  1
  O  O105  1  0.22441199  0.44882399  0.57966708  1
  O  O106  1  0.22441199  0.94882399  0.07966708  1
  O  O107  1  0.22441199  0.94882399  0.57966708  1
  O  O108  1  0.72441199  0.44882399  0.07966708  1
  O  O109  1  0.72441199  0.44882399  0.57966708  1
  O  O110  1  0.72441199  0.94882399  0.07966708  1
  O  O111  1  0.72441199  0.94882399  0.57966708  1
  O  O112  1  0.05117601  0.27558801  0.07966708  1
  O  O113  1  0.05117601  0.27558801  0.57966708  1
  O  O114  1  0.05117601  0.77558801  0.07966708  1
  O  O115  1  0.05117601  0.77558801  0.57966708  1
  O  O116  1  0.55117601  0.27558801  0.07966708  1
  O  O117  1  0.55117601  0.27558801  0.57966708  1
  O  O118  1  0.55117601  0.77558801  0.07966708  1
  O  O119  1  0.55117601  0.77558801  0.57966708  1
  O  O120  1  0.44014144  0.05985856  0.31899727  1
  O  O121  1  0.44014144  0.05985856  0.81899727  1
  O  O122  1  0.44014144  0.55985856  0.31899727  1
  O  O123  1  0.44014144  0.55985856  0.81899727  1
  O  O124  1  0.94014144  0.05985856  0.31899727  1
  O  O125  1  0.94014144  0.05985856  0.81899727  1
  O  O126  1  0.94014144  0.55985856  0.31899727  1
  O  O127  1  0.94014144  0.55985856  0.81899727  1
  O  O128  1  0.44014144  0.38028288  0.31899727  1
  O  O129  1  0.44014144  0.38028288  0.81899727  1
  O  O130  1  0.44014144  0.88028288  0.31899727  1
  O  O131  1  0.44014144  0.88028288  0.81899727  1
  O  O132  1  0.94014144  0.38028288  0.31899727  1
  O  O133  1  0.94014144  0.38028288  0.81899727  1
  O  O134  1  0.94014144  0.88028288  0.31899727  1
  O  O135  1  0.94014144  0.88028288  0.81899727  1
  O  O136  1  0.11971712  0.05985856  0.31899727  1
  O  O137  1  0.11971712  0.05985856  0.81899727  1
  O  O138  1  0.11971712  0.55985856  0.31899727  1
  O  O139  1  0.11971712  0.55985856  0.81899727  1
  O  O140  1  0.61971712  0.05985856  0.31899727  1
  O  O141  1  0.61971712  0.05985856  0.81899727  1
  O  O142  1  0.61971712  0.55985856  0.31899727  1
  O  O143  1  0.61971712  0.55985856  0.81899727  1
  O  O144  1  0.05985856  0.44014144  0.18100273  1
  O  O145  1  0.05985856  0.44014144  0.68100273  1
  O  O146  1  0.05985856  0.94014144  0.18100273  1
  O  O147  1  0.05985856  0.94014144  0.68100273  1
  O  O148  1  0.55985856  0.44014144  0.18100273  1
  O  O149  1  0.55985856  0.44014144  0.68100273  1
  O  O150  1  0.55985856  0.94014144  0.18100273  1
  O  O151  1  0.55985856  0.94014144  0.68100273  1
  O  O152  1  0.05985856  0.11971712  0.18100273  1
  O  O153  1  0.05985856  0.11971712  0.68100273  1
  O  O154  1  0.05985856  0.61971712  0.18100273  1
  O  O155  1  0.05985856  0.61971712  0.68100273  1
  O  O156  1  0.55985856  0.11971712  0.18100273  1
  O  O157  1  0.55985856  0.11971712  0.68100273  1
  O  O158  1  0.55985856  0.61971712  0.18100273  1
  O  O159  1  0.55985856  0.61971712  0.68100273  1
  O  O160  1  0.38028288  0.44014144  0.18100273  1
  O  O161  1  0.38028288  0.44014144  0.68100273  1
  O  O162  1  0.38028288  0.94014144  0.18100273  1
  O  O163  1  0.38028288  0.94014144  0.68100273  1
  O  O164  1  0.88028288  0.44014144  0.18100273  1
  O  O165  1  0.88028288  0.44014144  0.68100273  1
  O  O166  1  0.88028288  0.94014144  0.18100273  1
  O  O167  1  0.88028288  0.94014144  0.68100273  1
  O  O168  1  0.07157302  0.42842698  0.44924169  1
  O  O169  1  0.07157302  0.42842698  0.94924169  1
  O  O170  1  0.07157302  0.92842698  0.44924169  1
  O  O171  1  0.07157302  0.92842698  0.94924169  1
  O  O172  1  0.57157302  0.42842698  0.44924169  1
  O  O173  1  0.57157302  0.42842698  0.94924169  1
  O  O174  1  0.57157302  0.92842698  0.44924169  1
  O  O175  1  0.57157302  0.92842698  0.94924169  1
  O  O176  1  0.07157302  0.14314604  0.44924169  1
  O  O177  1  0.07157302  0.14314604  0.94924169  1
  O  O178  1  0.07157302  0.64314604  0.44924169  1
  O  O179  1  0.07157302  0.64314604  0.94924169  1
  O  O180  1  0.57157302  0.14314604  0.44924169  1
  O  O181  1  0.57157302  0.14314604  0.94924169  1
  O  O182  1  0.57157302  0.64314604  0.44924169  1
  O  O183  1  0.57157302  0.64314604  0.94924169  1
  O  O184  1  0.35685396  0.42842698  0.44924169  1
  O  O185  1  0.35685396  0.42842698  0.94924169  1
  O  O186  1  0.35685396  0.92842698  0.44924169  1
  O  O187  1  0.35685396  0.92842698  0.94924169  1
  O  O188  1  0.85685396  0.42842698  0.44924169  1
  O  O189  1  0.85685396  0.42842698  0.94924169  1
  O  O190  1  0.85685396  0.92842698  0.44924169  1
  O  O191  1  0.85685396  0.92842698  0.94924169  1
  O  O192  1  0.42842698  0.07157302  0.05075831  1
  O  O193  1  0.42842698  0.07157302  0.55075831  1
  O  O194  1  0.42842698  0.57157302  0.05075831  1
  O  O195  1  0.42842698  0.57157302  0.55075831  1
  O  O196  1  0.92842698  0.07157302  0.05075831  1
  O  O197  1  0.92842698  0.07157302  0.55075831  1
  O  O198  1  0.92842698  0.57157302  0.05075831  1
  O  O199  1  0.92842698  0.57157302  0.55075831  1
  O  O200  1  0.42842698  0.35685396  0.05075831  1
  O  O201  1  0.42842698  0.35685396  0.55075831  1
  O  O202  1  0.42842698  0.85685396  0.05075831  1
  O  O203  1  0.42842698  0.85685396  0.55075831  1
  O  O204  1  0.92842698  0.35685396  0.05075831  1
  O  O205  1  0.92842698  0.35685396  0.55075831  1
  O  O206  1  0.92842698  0.85685396  0.05075831  1
  O  O207  1  0.92842698  0.85685396  0.55075831  1
  O  O208  1  0.14314604  0.07157302  0.05075831  1
  O  O209  1  0.14314604  0.07157302  0.55075831  1
  O  O210  1  0.14314604  0.57157302  0.05075831  1
  O  O211  1  0.14314604  0.57157302  0.55075831  1
  O  O212  1  0.64314604  0.07157302  0.05075831  1
  O  O213  1  0.64314604  0.07157302  0.55075831  1
  O  O214  1  0.64314604  0.57157302  0.05075831  1
  O  O215  1  0.64314604  0.57157302  0.55075831  1
