# generated using pymatgen
data_KY(WO4)2
_symmetry_space_group_name_H-M   'P 1'
_cell_length_a   21.29936445
_cell_length_b   20.79831090
_cell_length_c   14.95499994
_cell_angle_alpha   90.00000000
_cell_angle_beta   130.71449640
_cell_angle_gamma   90.00000000
_symmetry_Int_Tables_number   1
_chemical_formula_structural   KY(WO4)2
_chemical_formula_sum   'K32 Y32 W64 O256'
_cell_volume   5021.49178031
_cell_formula_units_Z   32
loop_
 _symmetry_equiv_pos_site_id
 _symmetry_equiv_pos_as_xyz
  1  'x, y, z'
loop_
 _atom_site_type_symbol
 _atom_site_label
 _atom_site_symmetry_multiplicity
 _atom_site_fract_x
 _atom_site_fract_y
 _atom_site_fract_z
 _atom_site_occupancy
  K  K0  1  0.25000000  0.10160711  0.37500000  1
  K  K1  1  0.25000000  0.10160711  0.87500000  1
  K  K2  1  0.25000000  0.60160711  0.37500000  1
  K  K3  1  0.25000000  0.60160711  0.87500000  1
  K  K4  1  0.75000000  0.10160711  0.37500000  1
  K  K5  1  0.75000000  0.10160711  0.87500000  1
  K  K6  1  0.75000000  0.60160711  0.37500000  1
  K  K7  1  0.75000000  0.60160711  0.87500000  1
  K  K8  1  0.50000000  0.35160711  0.37500000  1
  K  K9  1  0.50000000  0.35160711  0.87500000  1
  K  K10  1  0.50000000  0.85160711  0.37500000  1
  K  K11  1  0.50000000  0.85160711  0.87500000  1
  K  K12  1  1.00000000  0.35160711  0.37500000  1
  K  K13  1  1.00000000  0.35160711  0.87500000  1
  K  K14  1  1.00000000  0.85160711  0.37500000  1
  K  K15  1  1.00000000  0.85160711  0.87500000  1
  K  K16  1  0.25000000  -0.10160711  0.12500000  1
  K  K17  1  0.25000000  -0.10160711  0.62500000  1
  K  K18  1  0.25000000  0.39839289  0.12500000  1
  K  K19  1  0.25000000  0.39839289  0.62500000  1
  K  K20  1  0.75000000  -0.10160711  0.12500000  1
  K  K21  1  0.75000000  -0.10160711  0.62500000  1
  K  K22  1  0.75000000  0.39839289  0.12500000  1
  K  K23  1  0.75000000  0.39839289  0.62500000  1
  K  K24  1  0.50000000  0.14839289  0.12500000  1
  K  K25  1  0.50000000  0.14839289  0.62500000  1
  K  K26  1  0.50000000  0.64839289  0.12500000  1
  K  K27  1  0.50000000  0.64839289  0.62500000  1
  K  K28  1  1.00000000  0.14839289  0.12500000  1
  K  K29  1  1.00000000  0.14839289  0.62500000  1
  K  K30  1  1.00000000  0.64839289  0.12500000  1
  K  K31  1  1.00000000  0.64839289  0.62500000  1
  Y  Y32  1  0.25000000  -0.11421778  0.37500000  1
  Y  Y33  1  0.25000000  -0.11421778  0.87500000  1
  Y  Y34  1  0.25000000  0.38578222  0.37500000  1
  Y  Y35  1  0.25000000  0.38578222  0.87500000  1
  Y  Y36  1  0.75000000  -0.11421778  0.37500000  1
  Y  Y37  1  0.75000000  -0.11421778  0.87500000  1
  Y  Y38  1  0.75000000  0.38578222  0.37500000  1
  Y  Y39  1  0.75000000  0.38578222  0.87500000  1
  Y  Y40  1  0.50000000  0.13578222  0.37500000  1
  Y  Y41  1  0.50000000  0.13578222  0.87500000  1
  Y  Y42  1  0.50000000  0.63578222  0.37500000  1
  Y  Y43  1  0.50000000  0.63578222  0.87500000  1
  Y  Y44  1  1.00000000  0.13578222  0.37500000  1
  Y  Y45  1  1.00000000  0.13578222  0.87500000  1
  Y  Y46  1  1.00000000  0.63578222  0.37500000  1
  Y  Y47  1  1.00000000  0.63578222  0.87500000  1
  Y  Y48  1  0.25000000  0.11421778  0.12500000  1
  Y  Y49  1  0.25000000  0.11421778  0.62500000  1
  Y  Y50  1  0.25000000  0.61421778  0.12500000  1
  Y  Y51  1  0.25000000  0.61421778  0.62500000  1
  Y  Y52  1  0.75000000  0.11421778  0.12500000  1
  Y  Y53  1  0.75000000  0.11421778  0.62500000  1
  Y  Y54  1  0.75000000  0.61421778  0.12500000  1
  Y  Y55  1  0.75000000  0.61421778  0.62500000  1
  Y  Y56  1  0.50000000  0.36421778  0.12500000  1
  Y  Y57  1  0.50000000  0.36421778  0.62500000  1
  Y  Y58  1  0.50000000  0.86421778  0.12500000  1
  Y  Y59  1  0.50000000  0.86421778  0.62500000  1
  Y  Y60  1  1.00000000  0.36421778  0.12500000  1
  Y  Y61  1  1.00000000  0.36421778  0.62500000  1
  Y  Y62  1  1.00000000  0.86421778  0.12500000  1
  Y  Y63  1  1.00000000  0.86421778  0.62500000  1
  W  W64  1  0.40146263  -0.00075129  0.13344302  1
  W  W65  1  0.40146263  -0.00075129  0.63344302  1
  W  W66  1  0.40146263  0.49924871  0.13344302  1
  W  W67  1  0.40146263  0.49924871  0.63344302  1
  W  W68  1  0.90146263  -0.00075129  0.13344302  1
  W  W69  1  0.90146263  -0.00075129  0.63344302  1
  W  W70  1  0.90146263  0.49924871  0.13344302  1
  W  W71  1  0.90146263  0.49924871  0.63344302  1
  W  W72  1  0.65146263  0.24924871  0.13344302  1
  W  W73  1  0.65146263  0.24924871  0.63344302  1
  W  W74  1  0.65146263  0.74924871  0.13344302  1
  W  W75  1  0.65146263  0.74924871  0.63344302  1
  W  W76  1  1.15146263  0.24924871  0.13344302  1
  W  W77  1  1.15146263  0.24924871  0.63344302  1
  W  W78  1  1.15146263  0.74924871  0.13344302  1
  W  W79  1  1.15146263  0.74924871  0.63344302  1
  W  W80  1  0.09853737  -0.00075129  0.11655698  1
  W  W81  1  0.09853737  -0.00075129  0.61655698  1
  W  W82  1  0.09853737  0.49924871  0.11655698  1
  W  W83  1  0.09853737  0.49924871  0.61655698  1
  W  W84  1  0.59853737  -0.00075129  0.11655698  1
  W  W85  1  0.59853737  -0.00075129  0.61655698  1
  W  W86  1  0.59853737  0.49924871  0.11655698  1
  W  W87  1  0.59853737  0.49924871  0.61655698  1
  W  W88  1  0.34853737  0.24924871  0.11655698  1
  W  W89  1  0.34853737  0.24924871  0.61655698  1
  W  W90  1  0.34853737  0.74924871  0.11655698  1
  W  W91  1  0.34853737  0.74924871  0.61655698  1
  W  W92  1  0.84853737  0.24924871  0.11655698  1
  W  W93  1  0.84853737  0.24924871  0.61655698  1
  W  W94  1  0.84853737  0.74924871  0.11655698  1
  W  W95  1  0.84853737  0.74924871  0.61655698  1
  W  W96  1  0.09853737  0.00075129  0.36655698  1
  W  W97  1  0.09853737  0.00075129  0.86655698  1
  W  W98  1  0.09853737  0.50075129  0.36655698  1
  W  W99  1  0.09853737  0.50075129  0.86655698  1
  W  W100  1  0.59853737  0.00075129  0.36655698  1
  W  W101  1  0.59853737  0.00075129  0.86655698  1
  W  W102  1  0.59853737  0.50075129  0.36655698  1
  W  W103  1  0.59853737  0.50075129  0.86655698  1
  W  W104  1  0.34853737  0.25075129  0.36655698  1
  W  W105  1  0.34853737  0.25075129  0.86655698  1
  W  W106  1  0.34853737  0.75075129  0.36655698  1
  W  W107  1  0.34853737  0.75075129  0.86655698  1
  W  W108  1  0.84853737  0.25075129  0.36655698  1
  W  W109  1  0.84853737  0.25075129  0.86655698  1
  W  W110  1  0.84853737  0.75075129  0.36655698  1
  W  W111  1  0.84853737  0.75075129  0.86655698  1
  W  W112  1  0.40146263  0.00075129  0.38344302  1
  W  W113  1  0.40146263  0.00075129  0.88344302  1
  W  W114  1  0.40146263  0.50075129  0.38344302  1
  W  W115  1  0.40146263  0.50075129  0.88344302  1
  W  W116  1  0.90146263  0.00075129  0.38344302  1
  W  W117  1  0.90146263  0.00075129  0.88344302  1
  W  W118  1  0.90146263  0.50075129  0.38344302  1
  W  W119  1  0.90146263  0.50075129  0.88344302  1
  W  W120  1  0.65146263  0.25075129  0.38344302  1
  W  W121  1  0.65146263  0.25075129  0.88344302  1
  W  W122  1  0.65146263  0.75075129  0.38344302  1
  W  W123  1  0.65146263  0.75075129  0.88344302  1
  W  W124  1  1.15146263  0.25075129  0.38344302  1
  W  W125  1  1.15146263  0.25075129  0.88344302  1
  W  W126  1  1.15146263  0.75075129  0.38344302  1
  W  W127  1  1.15146263  0.75075129  0.88344302  1
  O  O128  1  0.40427453  -0.03577011  0.27628431  1
  O  O129  1  0.40427453  -0.03577011  0.77628431  1
  O  O130  1  0.40427453  0.46422989  0.27628431  1
  O  O131  1  0.40427453  0.46422989  0.77628431  1
  O  O132  1  0.90427453  -0.03577011  0.27628431  1
  O  O133  1  0.90427453  -0.03577011  0.77628431  1
  O  O134  1  0.90427453  0.46422989  0.27628431  1
  O  O135  1  0.90427453  0.46422989  0.77628431  1
  O  O136  1  0.65427453  0.21422989  0.27628431  1
  O  O137  1  0.65427453  0.21422989  0.77628431  1
  O  O138  1  0.65427453  0.71422989  0.27628431  1
  O  O139  1  0.65427453  0.71422989  0.77628431  1
  O  O140  1  1.15427453  0.21422989  0.27628431  1
  O  O141  1  1.15427453  0.21422989  0.77628431  1
  O  O142  1  1.15427453  0.71422989  0.27628431  1
  O  O143  1  1.15427453  0.71422989  0.77628431  1
  O  O144  1  0.09572547  -0.03577011  0.47371569  1
  O  O145  1  0.09572547  -0.03577011  0.97371569  1
  O  O146  1  0.09572547  0.46422989  0.47371569  1
  O  O147  1  0.09572547  0.46422989  0.97371569  1
  O  O148  1  0.59572547  -0.03577011  0.47371569  1
  O  O149  1  0.59572547  -0.03577011  0.97371569  1
  O  O150  1  0.59572547  0.46422989  0.47371569  1
  O  O151  1  0.59572547  0.46422989  0.97371569  1
  O  O152  1  0.34572547  0.21422989  0.47371569  1
  O  O153  1  0.34572547  0.21422989  0.97371569  1
  O  O154  1  0.34572547  0.71422989  0.47371569  1
  O  O155  1  0.34572547  0.71422989  0.97371569  1
  O  O156  1  0.84572547  0.21422989  0.47371569  1
  O  O157  1  0.84572547  0.21422989  0.97371569  1
  O  O158  1  0.84572547  0.71422989  0.47371569  1
  O  O159  1  0.84572547  0.71422989  0.97371569  1
  O  O160  1  0.09572547  0.03577011  0.22371569  1
  O  O161  1  0.09572547  0.03577011  0.72371569  1
  O  O162  1  0.09572547  0.53577011  0.22371569  1
  O  O163  1  0.09572547  0.53577011  0.72371569  1
  O  O164  1  0.59572547  0.03577011  0.22371569  1
  O  O165  1  0.59572547  0.03577011  0.72371569  1
  O  O166  1  0.59572547  0.53577011  0.22371569  1
  O  O167  1  0.59572547  0.53577011  0.72371569  1
  O  O168  1  0.34572547  0.28577011  0.22371569  1
  O  O169  1  0.34572547  0.28577011  0.72371569  1
  O  O170  1  0.34572547  0.78577011  0.22371569  1
  O  O171  1  0.34572547  0.78577011  0.72371569  1
  O  O172  1  0.84572547  0.28577011  0.22371569  1
  O  O173  1  0.84572547  0.28577011  0.72371569  1
  O  O174  1  0.84572547  0.78577011  0.22371569  1
  O  O175  1  0.84572547  0.78577011  0.72371569  1
  O  O176  1  0.40427453  0.03577011  0.02628431  1
  O  O177  1  0.40427453  0.03577011  0.52628431  1
  O  O178  1  0.40427453  0.53577011  0.02628431  1
  O  O179  1  0.40427453  0.53577011  0.52628431  1
  O  O180  1  0.90427453  0.03577011  0.02628431  1
  O  O181  1  0.90427453  0.03577011  0.52628431  1
  O  O182  1  0.90427453  0.53577011  0.02628431  1
  O  O183  1  0.90427453  0.53577011  0.52628431  1
  O  O184  1  0.65427453  0.28577011  0.02628431  1
  O  O185  1  0.65427453  0.28577011  0.52628431  1
  O  O186  1  0.65427453  0.78577011  0.02628431  1
  O  O187  1  0.65427453  0.78577011  0.52628431  1
  O  O188  1  1.15427453  0.28577011  0.02628431  1
  O  O189  1  1.15427453  0.28577011  0.52628431  1
  O  O190  1  1.15427453  0.78577011  0.02628431  1
  O  O191  1  1.15427453  0.78577011  0.52628431  1
  O  O192  1  0.13872664  -0.07946637  0.18795962  1
  O  O193  1  0.13872664  -0.07946637  0.68795962  1
  O  O194  1  0.13872664  0.42053363  0.18795962  1
  O  O195  1  0.13872664  0.42053363  0.68795962  1
  O  O196  1  0.63872664  -0.07946637  0.18795962  1
  O  O197  1  0.63872664  -0.07946637  0.68795962  1
  O  O198  1  0.63872664  0.42053363  0.18795962  1
  O  O199  1  0.63872664  0.42053363  0.68795962  1
  O  O200  1  0.38872664  0.17053363  0.18795962  1
  O  O201  1  0.38872664  0.17053363  0.68795962  1
  O  O202  1  0.38872664  0.67053363  0.18795962  1
  O  O203  1  0.38872664  0.67053363  0.68795962  1
  O  O204  1  0.88872664  0.17053363  0.18795962  1
  O  O205  1  0.88872664  0.17053363  0.68795962  1
  O  O206  1  0.88872664  0.67053363  0.18795962  1
  O  O207  1  0.88872664  0.67053363  0.68795962  1
  O  O208  1  0.36127336  -0.07946637  0.06204038  1
  O  O209  1  0.36127336  -0.07946637  0.56204038  1
  O  O210  1  0.36127336  0.42053363  0.06204038  1
  O  O211  1  0.36127336  0.42053363  0.56204038  1
  O  O212  1  0.86127336  -0.07946637  0.06204038  1
  O  O213  1  0.86127336  -0.07946637  0.56204038  1
  O  O214  1  0.86127336  0.42053363  0.06204038  1
  O  O215  1  0.86127336  0.42053363  0.56204038  1
  O  O216  1  0.61127336  0.17053363  0.06204038  1
  O  O217  1  0.61127336  0.17053363  0.56204038  1
  O  O218  1  0.61127336  0.67053363  0.06204038  1
  O  O219  1  0.61127336  0.67053363  0.56204038  1
  O  O220  1  1.11127336  0.17053363  0.06204038  1
  O  O221  1  1.11127336  0.17053363  0.56204038  1
  O  O222  1  1.11127336  0.67053363  0.06204038  1
  O  O223  1  1.11127336  0.67053363  0.56204038  1
  O  O224  1  0.36127336  0.07946637  0.31204038  1
  O  O225  1  0.36127336  0.07946637  0.81204038  1
  O  O226  1  0.36127336  0.57946637  0.31204038  1
  O  O227  1  0.36127336  0.57946637  0.81204038  1
  O  O228  1  0.86127336  0.07946637  0.31204038  1
  O  O229  1  0.86127336  0.07946637  0.81204038  1
  O  O230  1  0.86127336  0.57946637  0.31204038  1
  O  O231  1  0.86127336  0.57946637  0.81204038  1
  O  O232  1  0.61127336  0.32946637  0.31204038  1
  O  O233  1  0.61127336  0.32946637  0.81204038  1
  O  O234  1  0.61127336  0.82946637  0.31204038  1
  O  O235  1  0.61127336  0.82946637  0.81204038  1
  O  O236  1  1.11127336  0.32946637  0.31204038  1
  O  O237  1  1.11127336  0.32946637  0.81204038  1
  O  O238  1  1.11127336  0.82946637  0.31204038  1
  O  O239  1  1.11127336  0.82946637  0.81204038  1
  O  O240  1  0.13872664  0.07946637  0.43795962  1
  O  O241  1  0.13872664  0.07946637  0.93795962  1
  O  O242  1  0.13872664  0.57946637  0.43795962  1
  O  O243  1  0.13872664  0.57946637  0.93795962  1
  O  O244  1  0.63872664  0.07946637  0.43795962  1
  O  O245  1  0.63872664  0.07946637  0.93795962  1
  O  O246  1  0.63872664  0.57946637  0.43795962  1
  O  O247  1  0.63872664  0.57946637  0.93795962  1
  O  O248  1  0.38872664  0.32946637  0.43795962  1
  O  O249  1  0.38872664  0.32946637  0.93795962  1
  O  O250  1  0.38872664  0.82946637  0.43795962  1
  O  O251  1  0.38872664  0.82946637  0.93795962  1
  O  O252  1  0.88872664  0.32946637  0.43795962  1
  O  O253  1  0.88872664  0.32946637  0.93795962  1
  O  O254  1  0.88872664  0.82946637  0.43795962  1
  O  O255  1  0.88872664  0.82946637  0.93795962  1
  O  O256  1  0.18705085  -0.04203578  0.40629314  1
  O  O257  1  0.18705085  -0.04203578  0.90629314  1
  O  O258  1  0.18705085  0.45796422  0.40629314  1
  O  O259  1  0.18705085  0.45796422  0.90629314  1
  O  O260  1  0.68705085  -0.04203578  0.40629314  1
  O  O261  1  0.68705085  -0.04203578  0.90629314  1
  O  O262  1  0.68705085  0.45796422  0.40629314  1
  O  O263  1  0.68705085  0.45796422  0.90629314  1
  O  O264  1  0.43705085  0.20796422  0.40629314  1
  O  O265  1  0.43705085  0.20796422  0.90629314  1
  O  O266  1  0.43705085  0.70796422  0.40629314  1
  O  O267  1  0.43705085  0.70796422  0.90629314  1
  O  O268  1  0.93705085  0.20796422  0.40629314  1
  O  O269  1  0.93705085  0.20796422  0.90629314  1
  O  O270  1  0.93705085  0.70796422  0.40629314  1
  O  O271  1  0.93705085  0.70796422  0.90629314  1
  O  O272  1  0.31294915  -0.04203578  0.34370686  1
  O  O273  1  0.31294915  -0.04203578  0.84370686  1
  O  O274  1  0.31294915  0.45796422  0.34370686  1
  O  O275  1  0.31294915  0.45796422  0.84370686  1
  O  O276  1  0.81294915  -0.04203578  0.34370686  1
  O  O277  1  0.81294915  -0.04203578  0.84370686  1
  O  O278  1  0.81294915  0.45796422  0.34370686  1
  O  O279  1  0.81294915  0.45796422  0.84370686  1
  O  O280  1  0.56294915  0.20796422  0.34370686  1
  O  O281  1  0.56294915  0.20796422  0.84370686  1
  O  O282  1  0.56294915  0.70796422  0.34370686  1
  O  O283  1  0.56294915  0.70796422  0.84370686  1
  O  O284  1  1.06294915  0.20796422  0.34370686  1
  O  O285  1  1.06294915  0.20796422  0.84370686  1
  O  O286  1  1.06294915  0.70796422  0.34370686  1
  O  O287  1  1.06294915  0.70796422  0.84370686  1
  O  O288  1  0.31294915  0.04203578  0.09370686  1
  O  O289  1  0.31294915  0.04203578  0.59370686  1
  O  O290  1  0.31294915  0.54203578  0.09370686  1
  O  O291  1  0.31294915  0.54203578  0.59370686  1
  O  O292  1  0.81294915  0.04203578  0.09370686  1
  O  O293  1  0.81294915  0.04203578  0.59370686  1
  O  O294  1  0.81294915  0.54203578  0.09370686  1
  O  O295  1  0.81294915  0.54203578  0.59370686  1
  O  O296  1  0.56294915  0.29203578  0.09370686  1
  O  O297  1  0.56294915  0.29203578  0.59370686  1
  O  O298  1  0.56294915  0.79203578  0.09370686  1
  O  O299  1  0.56294915  0.79203578  0.59370686  1
  O  O300  1  1.06294915  0.29203578  0.09370686  1
  O  O301  1  1.06294915  0.29203578  0.59370686  1
  O  O302  1  1.06294915  0.79203578  0.09370686  1
  O  O303  1  1.06294915  0.79203578  0.59370686  1
  O  O304  1  0.18705085  0.04203578  0.15629314  1
  O  O305  1  0.18705085  0.04203578  0.65629314  1
  O  O306  1  0.18705085  0.54203578  0.15629314  1
  O  O307  1  0.18705085  0.54203578  0.65629314  1
  O  O308  1  0.68705085  0.04203578  0.15629314  1
  O  O309  1  0.68705085  0.04203578  0.65629314  1
  O  O310  1  0.68705085  0.54203578  0.15629314  1
  O  O311  1  0.68705085  0.54203578  0.65629314  1
  O  O312  1  0.43705085  0.29203578  0.15629314  1
  O  O313  1  0.43705085  0.29203578  0.65629314  1
  O  O314  1  0.43705085  0.79203578  0.15629314  1
  O  O315  1  0.43705085  0.79203578  0.65629314  1
  O  O316  1  0.93705085  0.29203578  0.15629314  1
  O  O317  1  0.93705085  0.29203578  0.65629314  1
  O  O318  1  0.93705085  0.79203578  0.15629314  1
  O  O319  1  0.93705085  0.79203578  0.65629314  1
  O  O320  1  0.23918984  -0.19547216  0.26482605  1
  O  O321  1  0.23918984  -0.19547216  0.76482605  1
  O  O322  1  0.23918984  0.30452784  0.26482605  1
  O  O323  1  0.23918984  0.30452784  0.76482605  1
  O  O324  1  0.73918984  -0.19547216  0.26482605  1
  O  O325  1  0.73918984  -0.19547216  0.76482605  1
  O  O326  1  0.73918984  0.30452784  0.26482605  1
  O  O327  1  0.73918984  0.30452784  0.76482605  1
  O  O328  1  0.48918984  0.05452784  0.26482605  1
  O  O329  1  0.48918984  0.05452784  0.76482605  1
  O  O330  1  0.48918984  0.55452784  0.26482605  1
  O  O331  1  0.48918984  0.55452784  0.76482605  1
  O  O332  1  0.98918984  0.05452784  0.26482605  1
  O  O333  1  0.98918984  0.05452784  0.76482605  1
  O  O334  1  0.98918984  0.55452784  0.26482605  1
  O  O335  1  0.98918984  0.55452784  0.76482605  1
  O  O336  1  0.26081016  0.19547216  0.23517395  1
  O  O337  1  0.26081016  0.19547216  0.73517395  1
  O  O338  1  0.26081016  0.69547216  0.23517395  1
  O  O339  1  0.26081016  0.69547216  0.73517395  1
  O  O340  1  0.76081016  0.19547216  0.23517395  1
  O  O341  1  0.76081016  0.19547216  0.73517395  1
  O  O342  1  0.76081016  0.69547216  0.23517395  1
  O  O343  1  0.76081016  0.69547216  0.73517395  1
  O  O344  1  0.51081016  0.44547216  0.23517395  1
  O  O345  1  0.51081016  0.44547216  0.73517395  1
  O  O346  1  0.51081016  0.94547216  0.23517395  1
  O  O347  1  0.51081016  0.94547216  0.73517395  1
  O  O348  1  1.01081016  0.44547216  0.23517395  1
  O  O349  1  1.01081016  0.44547216  0.73517395  1
  O  O350  1  1.01081016  0.94547216  0.23517395  1
  O  O351  1  1.01081016  0.94547216  0.73517395  1
  O  O352  1  0.26081016  -0.19547216  0.48517395  1
  O  O353  1  0.26081016  -0.19547216  0.98517395  1
  O  O354  1  0.26081016  0.30452784  0.48517395  1
  O  O355  1  0.26081016  0.30452784  0.98517395  1
  O  O356  1  0.76081016  -0.19547216  0.48517395  1
  O  O357  1  0.76081016  -0.19547216  0.98517395  1
  O  O358  1  0.76081016  0.30452784  0.48517395  1
  O  O359  1  0.76081016  0.30452784  0.98517395  1
  O  O360  1  0.51081016  0.05452784  0.48517395  1
  O  O361  1  0.51081016  0.05452784  0.98517395  1
  O  O362  1  0.51081016  0.55452784  0.48517395  1
  O  O363  1  0.51081016  0.55452784  0.98517395  1
  O  O364  1  1.01081016  0.05452784  0.48517395  1
  O  O365  1  1.01081016  0.05452784  0.98517395  1
  O  O366  1  1.01081016  0.55452784  0.48517395  1
  O  O367  1  1.01081016  0.55452784  0.98517395  1
  O  O368  1  0.23918984  0.19547216  0.01482605  1
  O  O369  1  0.23918984  0.19547216  0.51482605  1
  O  O370  1  0.23918984  0.69547216  0.01482605  1
  O  O371  1  0.23918984  0.69547216  0.51482605  1
  O  O372  1  0.73918984  0.19547216  0.01482605  1
  O  O373  1  0.73918984  0.19547216  0.51482605  1
  O  O374  1  0.73918984  0.69547216  0.01482605  1
  O  O375  1  0.73918984  0.69547216  0.51482605  1
  O  O376  1  0.48918984  0.44547216  0.01482605  1
  O  O377  1  0.48918984  0.44547216  0.51482605  1
  O  O378  1  0.48918984  0.94547216  0.01482605  1
  O  O379  1  0.48918984  0.94547216  0.51482605  1
  O  O380  1  0.98918984  0.44547216  0.01482605  1
  O  O381  1  0.98918984  0.44547216  0.51482605  1
  O  O382  1  0.98918984  0.94547216  0.01482605  1
  O  O383  1  0.98918984  0.94547216  0.51482605  1
