# generated using pymatgen
data_K3Y(BO3)2
_symmetry_space_group_name_H-M   'P 1'
_cell_length_a   20.46847952
_cell_length_b   18.71707754
_cell_length_c   16.62160226
_cell_angle_alpha   90.00000000
_cell_angle_beta   90.00000000
_cell_angle_gamma   90.00000000
_symmetry_Int_Tables_number   1
_chemical_formula_structural   K3Y(BO3)2
_chemical_formula_sum   'K108 Y36 B72 O216'
_cell_volume   6367.90401017
_cell_formula_units_Z   36
loop_
 _symmetry_equiv_pos_site_id
 _symmetry_equiv_pos_as_xyz
  1  'x, y, z'
loop_
 _atom_site_type_symbol
 _atom_site_label
 _atom_site_symmetry_multiplicity
 _atom_site_fract_x
 _atom_site_fract_y
 _atom_site_fract_z
 _atom_site_occupancy
  K  K0  1  0.07507223  0.16628496  0.00000000  1
  K  K1  1  0.07507223  0.16628496  0.33333333  1
  K  K2  1  0.07507223  0.16628496  0.66666667  1
  K  K3  1  0.07507223  0.66628496  0.00000000  1
  K  K4  1  0.07507223  0.66628496  0.33333333  1
  K  K5  1  0.07507223  0.66628496  0.66666667  1
  K  K6  1  0.40840557  0.16628496  0.00000000  1
  K  K7  1  0.40840557  0.16628496  0.33333333  1
  K  K8  1  0.40840557  0.16628496  0.66666667  1
  K  K9  1  0.40840557  0.66628496  0.00000000  1
  K  K10  1  0.40840557  0.66628496  0.33333333  1
  K  K11  1  0.40840557  0.66628496  0.66666667  1
  K  K12  1  0.74173890  0.16628496  0.00000000  1
  K  K13  1  0.74173890  0.16628496  0.33333333  1
  K  K14  1  0.74173890  0.16628496  0.66666667  1
  K  K15  1  0.74173890  0.66628496  0.00000000  1
  K  K16  1  0.74173890  0.66628496  0.33333333  1
  K  K17  1  0.74173890  0.66628496  0.66666667  1
  K  K18  1  0.25826110  0.33371504  0.00000000  1
  K  K19  1  0.25826110  0.33371504  0.33333333  1
  K  K20  1  0.25826110  0.33371504  0.66666667  1
  K  K21  1  0.25826110  0.83371504  0.00000000  1
  K  K22  1  0.25826110  0.83371504  0.33333333  1
  K  K23  1  0.25826110  0.83371504  0.66666667  1
  K  K24  1  0.59159443  0.33371504  0.00000000  1
  K  K25  1  0.59159443  0.33371504  0.33333333  1
  K  K26  1  0.59159443  0.33371504  0.66666667  1
  K  K27  1  0.59159443  0.83371504  0.00000000  1
  K  K28  1  0.59159443  0.83371504  0.33333333  1
  K  K29  1  0.59159443  0.83371504  0.66666667  1
  K  K30  1  0.92492777  0.33371504  0.00000000  1
  K  K31  1  0.92492777  0.33371504  0.33333333  1
  K  K32  1  0.92492777  0.33371504  0.66666667  1
  K  K33  1  0.92492777  0.83371504  0.00000000  1
  K  K34  1  0.92492777  0.83371504  0.33333333  1
  K  K35  1  0.92492777  0.83371504  0.66666667  1
  K  K36  1  0.24173890  0.08371504  0.16666667  1
  K  K37  1  0.24173890  0.08371504  0.50000000  1
  K  K38  1  0.24173890  0.08371504  0.83333333  1
  K  K39  1  0.24173890  0.58371504  0.16666667  1
  K  K40  1  0.24173890  0.58371504  0.50000000  1
  K  K41  1  0.24173890  0.58371504  0.83333333  1
  K  K42  1  0.57507223  0.08371504  0.16666667  1
  K  K43  1  0.57507223  0.08371504  0.50000000  1
  K  K44  1  0.57507223  0.08371504  0.83333333  1
  K  K45  1  0.57507223  0.58371504  0.16666667  1
  K  K46  1  0.57507223  0.58371504  0.50000000  1
  K  K47  1  0.57507223  0.58371504  0.83333333  1
  K  K48  1  0.90840557  0.08371504  0.16666667  1
  K  K49  1  0.90840557  0.08371504  0.50000000  1
  K  K50  1  0.90840557  0.08371504  0.83333333  1
  K  K51  1  0.90840557  0.58371504  0.16666667  1
  K  K52  1  0.90840557  0.58371504  0.50000000  1
  K  K53  1  0.90840557  0.58371504  0.83333333  1
  K  K54  1  0.16666667  0.25000000  0.16666667  1
  K  K55  1  0.16666667  0.25000000  0.50000000  1
  K  K56  1  0.16666667  0.25000000  0.83333333  1
  K  K57  1  0.16666667  0.75000000  0.16666667  1
  K  K58  1  0.16666667  0.75000000  0.50000000  1
  K  K59  1  0.16666667  0.75000000  0.83333333  1
  K  K60  1  0.50000000  0.25000000  0.16666667  1
  K  K61  1  0.50000000  0.25000000  0.50000000  1
  K  K62  1  0.50000000  0.25000000  0.83333333  1
  K  K63  1  0.50000000  0.75000000  0.16666667  1
  K  K64  1  0.50000000  0.75000000  0.50000000  1
  K  K65  1  0.50000000  0.75000000  0.83333333  1
  K  K66  1  0.83333333  0.25000000  0.16666667  1
  K  K67  1  0.83333333  0.25000000  0.50000000  1
  K  K68  1  0.83333333  0.25000000  0.83333333  1
  K  K69  1  0.83333333  0.75000000  0.16666667  1
  K  K70  1  0.83333333  0.75000000  0.50000000  1
  K  K71  1  0.83333333  0.75000000  0.83333333  1
  K  K72  1  0.09159443  0.41628496  0.16666667  1
  K  K73  1  0.09159443  0.41628496  0.50000000  1
  K  K74  1  0.09159443  0.41628496  0.83333333  1
  K  K75  1  0.09159443  0.91628496  0.16666667  1
  K  K76  1  0.09159443  0.91628496  0.50000000  1
  K  K77  1  0.09159443  0.91628496  0.83333333  1
  K  K78  1  0.42492777  0.41628496  0.16666667  1
  K  K79  1  0.42492777  0.41628496  0.50000000  1
  K  K80  1  0.42492777  0.41628496  0.83333333  1
  K  K81  1  0.42492777  0.91628496  0.16666667  1
  K  K82  1  0.42492777  0.91628496  0.50000000  1
  K  K83  1  0.42492777  0.91628496  0.83333333  1
  K  K84  1  0.75826110  0.41628496  0.16666667  1
  K  K85  1  0.75826110  0.41628496  0.50000000  1
  K  K86  1  0.75826110  0.41628496  0.83333333  1
  K  K87  1  0.75826110  0.91628496  0.16666667  1
  K  K88  1  0.75826110  0.91628496  0.50000000  1
  K  K89  1  0.75826110  0.91628496  0.83333333  1
  K  K90  1  0.00000000  0.00000000  0.00000000  1
  K  K91  1  0.00000000  0.00000000  0.33333333  1
  K  K92  1  0.00000000  0.00000000  0.66666667  1
  K  K93  1  0.00000000  0.50000000  0.00000000  1
  K  K94  1  0.00000000  0.50000000  0.33333333  1
  K  K95  1  0.00000000  0.50000000  0.66666667  1
  K  K96  1  0.33333333  0.00000000  0.00000000  1
  K  K97  1  0.33333333  0.00000000  0.33333333  1
  K  K98  1  0.33333333  0.00000000  0.66666667  1
  K  K99  1  0.33333333  0.50000000  0.00000000  1
  K  K100  1  0.33333333  0.50000000  0.33333333  1
  K  K101  1  0.33333333  0.50000000  0.66666667  1
  K  K102  1  0.66666667  0.00000000  0.00000000  1
  K  K103  1  0.66666667  0.00000000  0.33333333  1
  K  K104  1  0.66666667  0.00000000  0.66666667  1
  K  K105  1  0.66666667  0.50000000  0.00000000  1
  K  K106  1  0.66666667  0.50000000  0.33333333  1
  K  K107  1  0.66666667  0.50000000  0.66666667  1
  Y  Y108  1  0.16666667  0.00000000  0.00000000  1
  Y  Y109  1  0.16666667  0.00000000  0.33333333  1
  Y  Y110  1  0.16666667  0.00000000  0.66666667  1
  Y  Y111  1  0.16666667  0.50000000  0.00000000  1
  Y  Y112  1  0.16666667  0.50000000  0.33333333  1
  Y  Y113  1  0.16666667  0.50000000  0.66666667  1
  Y  Y114  1  0.50000000  0.00000000  0.00000000  1
  Y  Y115  1  0.50000000  0.00000000  0.33333333  1
  Y  Y116  1  0.50000000  0.00000000  0.66666667  1
  Y  Y117  1  0.50000000  0.50000000  0.00000000  1
  Y  Y118  1  0.50000000  0.50000000  0.33333333  1
  Y  Y119  1  0.50000000  0.50000000  0.66666667  1
  Y  Y120  1  0.83333333  0.00000000  0.00000000  1
  Y  Y121  1  0.83333333  0.00000000  0.33333333  1
  Y  Y122  1  0.83333333  0.00000000  0.66666667  1
  Y  Y123  1  0.83333333  0.50000000  0.00000000  1
  Y  Y124  1  0.83333333  0.50000000  0.33333333  1
  Y  Y125  1  0.83333333  0.50000000  0.66666667  1
  Y  Y126  1  0.00000000  0.25000000  0.16666667  1
  Y  Y127  1  0.00000000  0.25000000  0.50000000  1
  Y  Y128  1  0.00000000  0.25000000  0.83333333  1
  Y  Y129  1  0.00000000  0.75000000  0.16666667  1
  Y  Y130  1  0.00000000  0.75000000  0.50000000  1
  Y  Y131  1  0.00000000  0.75000000  0.83333333  1
  Y  Y132  1  0.33333333  0.25000000  0.16666667  1
  Y  Y133  1  0.33333333  0.25000000  0.50000000  1
  Y  Y134  1  0.33333333  0.25000000  0.83333333  1
  Y  Y135  1  0.33333333  0.75000000  0.16666667  1
  Y  Y136  1  0.33333333  0.75000000  0.50000000  1
  Y  Y137  1  0.33333333  0.75000000  0.83333333  1
  Y  Y138  1  0.66666667  0.25000000  0.16666667  1
  Y  Y139  1  0.66666667  0.25000000  0.50000000  1
  Y  Y140  1  0.66666667  0.25000000  0.83333333  1
  Y  Y141  1  0.66666667  0.75000000  0.16666667  1
  Y  Y142  1  0.66666667  0.75000000  0.50000000  1
  Y  Y143  1  0.66666667  0.75000000  0.83333333  1
  B  B144  1  0.25486313  0.16670380  0.00000000  1
  B  B145  1  0.25486313  0.16670380  0.33333333  1
  B  B146  1  0.25486313  0.16670380  0.66666667  1
  B  B147  1  0.25486313  0.66670380  0.00000000  1
  B  B148  1  0.25486313  0.66670380  0.33333333  1
  B  B149  1  0.25486313  0.66670380  0.66666667  1
  B  B150  1  0.58819646  0.16670380  0.00000000  1
  B  B151  1  0.58819646  0.16670380  0.33333333  1
  B  B152  1  0.58819646  0.16670380  0.66666667  1
  B  B153  1  0.58819646  0.66670380  0.00000000  1
  B  B154  1  0.58819646  0.66670380  0.33333333  1
  B  B155  1  0.58819646  0.66670380  0.66666667  1
  B  B156  1  0.92152979  0.16670380  0.00000000  1
  B  B157  1  0.92152979  0.16670380  0.33333333  1
  B  B158  1  0.92152979  0.16670380  0.66666667  1
  B  B159  1  0.92152979  0.66670380  0.00000000  1
  B  B160  1  0.92152979  0.66670380  0.33333333  1
  B  B161  1  0.92152979  0.66670380  0.66666667  1
  B  B162  1  0.07847021  0.33329620  0.00000000  1
  B  B163  1  0.07847021  0.33329620  0.33333333  1
  B  B164  1  0.07847021  0.33329620  0.66666667  1
  B  B165  1  0.07847021  0.83329620  0.00000000  1
  B  B166  1  0.07847021  0.83329620  0.33333333  1
  B  B167  1  0.07847021  0.83329620  0.66666667  1
  B  B168  1  0.41180354  0.33329620  0.00000000  1
  B  B169  1  0.41180354  0.33329620  0.33333333  1
  B  B170  1  0.41180354  0.33329620  0.66666667  1
  B  B171  1  0.41180354  0.83329620  0.00000000  1
  B  B172  1  0.41180354  0.83329620  0.33333333  1
  B  B173  1  0.41180354  0.83329620  0.66666667  1
  B  B174  1  0.74513687  0.33329620  0.00000000  1
  B  B175  1  0.74513687  0.33329620  0.33333333  1
  B  B176  1  0.74513687  0.33329620  0.66666667  1
  B  B177  1  0.74513687  0.83329620  0.00000000  1
  B  B178  1  0.74513687  0.83329620  0.33333333  1
  B  B179  1  0.74513687  0.83329620  0.66666667  1
  B  B180  1  0.24513687  0.41670380  0.16666667  1
  B  B181  1  0.24513687  0.41670380  0.50000000  1
  B  B182  1  0.24513687  0.41670380  0.83333333  1
  B  B183  1  0.24513687  0.91670380  0.16666667  1
  B  B184  1  0.24513687  0.91670380  0.50000000  1
  B  B185  1  0.24513687  0.91670380  0.83333333  1
  B  B186  1  0.57847021  0.41670380  0.16666667  1
  B  B187  1  0.57847021  0.41670380  0.50000000  1
  B  B188  1  0.57847021  0.41670380  0.83333333  1
  B  B189  1  0.57847021  0.91670380  0.16666667  1
  B  B190  1  0.57847021  0.91670380  0.50000000  1
  B  B191  1  0.57847021  0.91670380  0.83333333  1
  B  B192  1  0.91180354  0.41670380  0.16666667  1
  B  B193  1  0.91180354  0.41670380  0.50000000  1
  B  B194  1  0.91180354  0.41670380  0.83333333  1
  B  B195  1  0.91180354  0.91670380  0.16666667  1
  B  B196  1  0.91180354  0.91670380  0.50000000  1
  B  B197  1  0.91180354  0.91670380  0.83333333  1
  B  B198  1  0.08819646  0.08329620  0.16666667  1
  B  B199  1  0.08819646  0.08329620  0.50000000  1
  B  B200  1  0.08819646  0.08329620  0.83333333  1
  B  B201  1  0.08819646  0.58329620  0.16666667  1
  B  B202  1  0.08819646  0.58329620  0.50000000  1
  B  B203  1  0.08819646  0.58329620  0.83333333  1
  B  B204  1  0.42152979  0.08329620  0.16666667  1
  B  B205  1  0.42152979  0.08329620  0.50000000  1
  B  B206  1  0.42152979  0.08329620  0.83333333  1
  B  B207  1  0.42152979  0.58329620  0.16666667  1
  B  B208  1  0.42152979  0.58329620  0.50000000  1
  B  B209  1  0.42152979  0.58329620  0.83333333  1
  B  B210  1  0.75486313  0.08329620  0.16666667  1
  B  B211  1  0.75486313  0.08329620  0.50000000  1
  B  B212  1  0.75486313  0.08329620  0.83333333  1
  B  B213  1  0.75486313  0.58329620  0.16666667  1
  B  B214  1  0.75486313  0.58329620  0.50000000  1
  B  B215  1  0.75486313  0.58329620  0.83333333  1
  O  O216  1  0.10090314  0.04865845  0.23903242  1
  O  O217  1  0.10090314  0.04865845  0.57236575  1
  O  O218  1  0.10090314  0.04865845  0.90569908  1
  O  O219  1  0.10090314  0.54865845  0.23903242  1
  O  O220  1  0.10090314  0.54865845  0.57236575  1
  O  O221  1  0.10090314  0.54865845  0.90569908  1
  O  O222  1  0.43423647  0.04865845  0.23903242  1
  O  O223  1  0.43423647  0.04865845  0.57236575  1
  O  O224  1  0.43423647  0.04865845  0.90569908  1
  O  O225  1  0.43423647  0.54865845  0.23903242  1
  O  O226  1  0.43423647  0.54865845  0.57236575  1
  O  O227  1  0.43423647  0.54865845  0.90569908  1
  O  O228  1  0.76756981  0.04865845  0.23903242  1
  O  O229  1  0.76756981  0.04865845  0.57236575  1
  O  O230  1  0.76756981  0.04865845  0.90569908  1
  O  O231  1  0.76756981  0.54865845  0.23903242  1
  O  O232  1  0.76756981  0.54865845  0.57236575  1
  O  O233  1  0.76756981  0.54865845  0.90569908  1
  O  O234  1  0.06576353  0.29865845  0.07236575  1
  O  O235  1  0.06576353  0.29865845  0.40569908  1
  O  O236  1  0.06576353  0.29865845  0.73903242  1
  O  O237  1  0.06576353  0.79865845  0.07236575  1
  O  O238  1  0.06576353  0.79865845  0.40569908  1
  O  O239  1  0.06576353  0.79865845  0.73903242  1
  O  O240  1  0.39909686  0.29865845  0.07236575  1
  O  O241  1  0.39909686  0.29865845  0.40569908  1
  O  O242  1  0.39909686  0.29865845  0.73903242  1
  O  O243  1  0.39909686  0.79865845  0.07236575  1
  O  O244  1  0.39909686  0.79865845  0.40569908  1
  O  O245  1  0.39909686  0.79865845  0.73903242  1
  O  O246  1  0.73243019  0.29865845  0.07236575  1
  O  O247  1  0.73243019  0.29865845  0.40569908  1
  O  O248  1  0.73243019  0.29865845  0.73903242  1
  O  O249  1  0.73243019  0.79865845  0.07236575  1
  O  O250  1  0.73243019  0.79865845  0.40569908  1
  O  O251  1  0.73243019  0.79865845  0.73903242  1
  O  O252  1  0.06381742  0.15263294  0.16666667  1
  O  O253  1  0.06381742  0.15263294  0.50000000  1
  O  O254  1  0.06381742  0.15263294  0.83333333  1
  O  O255  1  0.06381742  0.65263294  0.16666667  1
  O  O256  1  0.06381742  0.65263294  0.50000000  1
  O  O257  1  0.06381742  0.65263294  0.83333333  1
  O  O258  1  0.39715075  0.15263294  0.16666667  1
  O  O259  1  0.39715075  0.15263294  0.50000000  1
  O  O260  1  0.39715075  0.15263294  0.83333333  1
  O  O261  1  0.39715075  0.65263294  0.16666667  1
  O  O262  1  0.39715075  0.65263294  0.50000000  1
  O  O263  1  0.39715075  0.65263294  0.83333333  1
  O  O264  1  0.73048408  0.15263294  0.16666667  1
  O  O265  1  0.73048408  0.15263294  0.50000000  1
  O  O266  1  0.73048408  0.15263294  0.83333333  1
  O  O267  1  0.73048408  0.65263294  0.16666667  1
  O  O268  1  0.73048408  0.65263294  0.50000000  1
  O  O269  1  0.73048408  0.65263294  0.83333333  1
  O  O270  1  0.23243019  0.45134155  0.23903242  1
  O  O271  1  0.23243019  0.45134155  0.57236575  1
  O  O272  1  0.23243019  0.45134155  0.90569908  1
  O  O273  1  0.23243019  0.95134155  0.23903242  1
  O  O274  1  0.23243019  0.95134155  0.57236575  1
  O  O275  1  0.23243019  0.95134155  0.90569908  1
  O  O276  1  0.56576353  0.45134155  0.23903242  1
  O  O277  1  0.56576353  0.45134155  0.57236575  1
  O  O278  1  0.56576353  0.45134155  0.90569908  1
  O  O279  1  0.56576353  0.95134155  0.23903242  1
  O  O280  1  0.56576353  0.95134155  0.57236575  1
  O  O281  1  0.56576353  0.95134155  0.90569908  1
  O  O282  1  0.89909686  0.45134155  0.23903242  1
  O  O283  1  0.89909686  0.45134155  0.57236575  1
  O  O284  1  0.89909686  0.45134155  0.90569908  1
  O  O285  1  0.89909686  0.95134155  0.23903242  1
  O  O286  1  0.89909686  0.95134155  0.57236575  1
  O  O287  1  0.89909686  0.95134155  0.90569908  1
  O  O288  1  0.10090314  0.04865845  0.09430092  1
  O  O289  1  0.10090314  0.04865845  0.42763425  1
  O  O290  1  0.10090314  0.04865845  0.76096758  1
  O  O291  1  0.10090314  0.54865845  0.09430092  1
  O  O292  1  0.10090314  0.54865845  0.42763425  1
  O  O293  1  0.10090314  0.54865845  0.76096758  1
  O  O294  1  0.43423647  0.04865845  0.09430092  1
  O  O295  1  0.43423647  0.04865845  0.42763425  1
  O  O296  1  0.43423647  0.04865845  0.76096758  1
  O  O297  1  0.43423647  0.54865845  0.09430092  1
  O  O298  1  0.43423647  0.54865845  0.42763425  1
  O  O299  1  0.43423647  0.54865845  0.76096758  1
  O  O300  1  0.76756981  0.04865845  0.09430092  1
  O  O301  1  0.76756981  0.04865845  0.42763425  1
  O  O302  1  0.76756981  0.04865845  0.76096758  1
  O  O303  1  0.76756981  0.54865845  0.09430092  1
  O  O304  1  0.76756981  0.54865845  0.42763425  1
  O  O305  1  0.76756981  0.54865845  0.76096758  1
  O  O306  1  0.26756981  0.20134155  0.07236575  1
  O  O307  1  0.26756981  0.20134155  0.40569908  1
  O  O308  1  0.26756981  0.20134155  0.73903242  1
  O  O309  1  0.26756981  0.70134155  0.07236575  1
  O  O310  1  0.26756981  0.70134155  0.40569908  1
  O  O311  1  0.26756981  0.70134155  0.73903242  1
  O  O312  1  0.60090314  0.20134155  0.07236575  1
  O  O313  1  0.60090314  0.20134155  0.40569908  1
  O  O314  1  0.60090314  0.20134155  0.73903242  1
  O  O315  1  0.60090314  0.70134155  0.07236575  1
  O  O316  1  0.60090314  0.70134155  0.40569908  1
  O  O317  1  0.60090314  0.70134155  0.73903242  1
  O  O318  1  0.93423647  0.20134155  0.07236575  1
  O  O319  1  0.93423647  0.20134155  0.40569908  1
  O  O320  1  0.93423647  0.20134155  0.73903242  1
  O  O321  1  0.93423647  0.70134155  0.07236575  1
  O  O322  1  0.93423647  0.70134155  0.40569908  1
  O  O323  1  0.93423647  0.70134155  0.73903242  1
  O  O324  1  0.06576353  0.29865845  0.26096758  1
  O  O325  1  0.06576353  0.29865845  0.59430092  1
  O  O326  1  0.06576353  0.29865845  0.92763425  1
  O  O327  1  0.06576353  0.79865845  0.26096758  1
  O  O328  1  0.06576353  0.79865845  0.59430092  1
  O  O329  1  0.06576353  0.79865845  0.92763425  1
  O  O330  1  0.39909686  0.29865845  0.26096758  1
  O  O331  1  0.39909686  0.29865845  0.59430092  1
  O  O332  1  0.39909686  0.29865845  0.92763425  1
  O  O333  1  0.39909686  0.79865845  0.26096758  1
  O  O334  1  0.39909686  0.79865845  0.59430092  1
  O  O335  1  0.39909686  0.79865845  0.92763425  1
  O  O336  1  0.73243019  0.29865845  0.26096758  1
  O  O337  1  0.73243019  0.29865845  0.59430092  1
  O  O338  1  0.73243019  0.29865845  0.92763425  1
  O  O339  1  0.73243019  0.79865845  0.26096758  1
  O  O340  1  0.73243019  0.79865845  0.59430092  1
  O  O341  1  0.73243019  0.79865845  0.92763425  1
  O  O342  1  0.23243019  0.45134155  0.09430092  1
  O  O343  1  0.23243019  0.45134155  0.42763425  1
  O  O344  1  0.23243019  0.45134155  0.76096758  1
  O  O345  1  0.23243019  0.95134155  0.09430092  1
  O  O346  1  0.23243019  0.95134155  0.42763425  1
  O  O347  1  0.23243019  0.95134155  0.76096758  1
  O  O348  1  0.56576353  0.45134155  0.09430092  1
  O  O349  1  0.56576353  0.45134155  0.42763425  1
  O  O350  1  0.56576353  0.45134155  0.76096758  1
  O  O351  1  0.56576353  0.95134155  0.09430092  1
  O  O352  1  0.56576353  0.95134155  0.42763425  1
  O  O353  1  0.56576353  0.95134155  0.76096758  1
  O  O354  1  0.89909686  0.45134155  0.09430092  1
  O  O355  1  0.89909686  0.45134155  0.42763425  1
  O  O356  1  0.89909686  0.45134155  0.76096758  1
  O  O357  1  0.89909686  0.95134155  0.09430092  1
  O  O358  1  0.89909686  0.95134155  0.42763425  1
  O  O359  1  0.89909686  0.95134155  0.76096758  1
  O  O360  1  0.26756981  0.20134155  0.26096758  1
  O  O361  1  0.26756981  0.20134155  0.59430092  1
  O  O362  1  0.26756981  0.20134155  0.92763425  1
  O  O363  1  0.26756981  0.70134155  0.26096758  1
  O  O364  1  0.26756981  0.70134155  0.59430092  1
  O  O365  1  0.26756981  0.70134155  0.92763425  1
  O  O366  1  0.60090314  0.20134155  0.26096758  1
  O  O367  1  0.60090314  0.20134155  0.59430092  1
  O  O368  1  0.60090314  0.20134155  0.92763425  1
  O  O369  1  0.60090314  0.70134155  0.26096758  1
  O  O370  1  0.60090314  0.70134155  0.59430092  1
  O  O371  1  0.60090314  0.70134155  0.92763425  1
  O  O372  1  0.93423647  0.20134155  0.26096758  1
  O  O373  1  0.93423647  0.20134155  0.59430092  1
  O  O374  1  0.93423647  0.20134155  0.92763425  1
  O  O375  1  0.93423647  0.70134155  0.26096758  1
  O  O376  1  0.93423647  0.70134155  0.59430092  1
  O  O377  1  0.93423647  0.70134155  0.92763425  1
  O  O378  1  0.10284925  0.40263294  0.00000000  1
  O  O379  1  0.10284925  0.40263294  0.33333333  1
  O  O380  1  0.10284925  0.40263294  0.66666667  1
  O  O381  1  0.10284925  0.90263294  0.00000000  1
  O  O382  1  0.10284925  0.90263294  0.33333333  1
  O  O383  1  0.10284925  0.90263294  0.66666667  1
  O  O384  1  0.43618258  0.40263294  0.00000000  1
  O  O385  1  0.43618258  0.40263294  0.33333333  1
  O  O386  1  0.43618258  0.40263294  0.66666667  1
  O  O387  1  0.43618258  0.90263294  0.00000000  1
  O  O388  1  0.43618258  0.90263294  0.33333333  1
  O  O389  1  0.43618258  0.90263294  0.66666667  1
  O  O390  1  0.76951592  0.40263294  0.00000000  1
  O  O391  1  0.76951592  0.40263294  0.33333333  1
  O  O392  1  0.76951592  0.40263294  0.66666667  1
  O  O393  1  0.76951592  0.90263294  0.00000000  1
  O  O394  1  0.76951592  0.90263294  0.33333333  1
  O  O395  1  0.76951592  0.90263294  0.66666667  1
  O  O396  1  0.23048408  0.09736706  0.00000000  1
  O  O397  1  0.23048408  0.09736706  0.33333333  1
  O  O398  1  0.23048408  0.09736706  0.66666667  1
  O  O399  1  0.23048408  0.59736706  0.00000000  1
  O  O400  1  0.23048408  0.59736706  0.33333333  1
  O  O401  1  0.23048408  0.59736706  0.66666667  1
  O  O402  1  0.56381742  0.09736706  0.00000000  1
  O  O403  1  0.56381742  0.09736706  0.33333333  1
  O  O404  1  0.56381742  0.09736706  0.66666667  1
  O  O405  1  0.56381742  0.59736706  0.00000000  1
  O  O406  1  0.56381742  0.59736706  0.33333333  1
  O  O407  1  0.56381742  0.59736706  0.66666667  1
  O  O408  1  0.89715075  0.09736706  0.00000000  1
  O  O409  1  0.89715075  0.09736706  0.33333333  1
  O  O410  1  0.89715075  0.09736706  0.66666667  1
  O  O411  1  0.89715075  0.59736706  0.00000000  1
  O  O412  1  0.89715075  0.59736706  0.33333333  1
  O  O413  1  0.89715075  0.59736706  0.66666667  1
  O  O414  1  0.26951592  0.34736706  0.16666667  1
  O  O415  1  0.26951592  0.34736706  0.50000000  1
  O  O416  1  0.26951592  0.34736706  0.83333333  1
  O  O417  1  0.26951592  0.84736706  0.16666667  1
  O  O418  1  0.26951592  0.84736706  0.50000000  1
  O  O419  1  0.26951592  0.84736706  0.83333333  1
  O  O420  1  0.60284925  0.34736706  0.16666667  1
  O  O421  1  0.60284925  0.34736706  0.50000000  1
  O  O422  1  0.60284925  0.34736706  0.83333333  1
  O  O423  1  0.60284925  0.84736706  0.16666667  1
  O  O424  1  0.60284925  0.84736706  0.50000000  1
  O  O425  1  0.60284925  0.84736706  0.83333333  1
  O  O426  1  0.93618258  0.34736706  0.16666667  1
  O  O427  1  0.93618258  0.34736706  0.50000000  1
  O  O428  1  0.93618258  0.34736706  0.83333333  1
  O  O429  1  0.93618258  0.84736706  0.16666667  1
  O  O430  1  0.93618258  0.84736706  0.50000000  1
  O  O431  1  0.93618258  0.84736706  0.83333333  1
