# generated using pymatgen
data_SrO
_symmetry_space_group_name_H-M   'P 1'
_cell_length_a   10.26780400
_cell_length_b   10.26780400
_cell_length_c   10.26780400
_cell_angle_alpha   90.00000000
_cell_angle_beta   90.00000000
_cell_angle_gamma   90.00000000
_symmetry_Int_Tables_number   1
_chemical_formula_structural   SrO
_chemical_formula_sum   'Sr32 O32'
_cell_volume   1082.51197545
_cell_formula_units_Z   32
loop_
 _symmetry_equiv_pos_site_id
 _symmetry_equiv_pos_as_xyz
  1  'x, y, z'
loop_
 _atom_site_type_symbol
 _atom_site_label
 _atom_site_symmetry_multiplicity
 _atom_site_fract_x
 _atom_site_fract_y
 _atom_site_fract_z
 _atom_site_occupancy
  Sr  Sr0  1  0.25000000  0.25000000  0.25000000  1
  Sr  Sr1  1  0.25000000  0.25000000  0.75000000  1
  Sr  Sr2  1  0.25000000  0.75000000  0.25000000  1
  Sr  Sr3  1  0.25000000  0.75000000  0.75000000  1
  Sr  Sr4  1  0.75000000  0.25000000  0.25000000  1
  Sr  Sr5  1  0.75000000  0.25000000  0.75000000  1
  Sr  Sr6  1  0.75000000  0.75000000  0.25000000  1
  Sr  Sr7  1  0.75000000  0.75000000  0.75000000  1
  Sr  Sr8  1  0.50000000  0.50000000  0.25000000  1
  Sr  Sr9  1  0.50000000  0.50000000  0.75000000  1
  Sr  Sr10  1  0.50000000  1.00000000  0.25000000  1
  Sr  Sr11  1  0.50000000  1.00000000  0.75000000  1
  Sr  Sr12  1  1.00000000  0.50000000  0.25000000  1
  Sr  Sr13  1  1.00000000  0.50000000  0.75000000  1
  Sr  Sr14  1  1.00000000  1.00000000  0.25000000  1
  Sr  Sr15  1  1.00000000  1.00000000  0.75000000  1
  Sr  Sr16  1  0.50000000  0.25000000  0.50000000  1
  Sr  Sr17  1  0.50000000  0.25000000  1.00000000  1
  Sr  Sr18  1  0.50000000  0.75000000  0.50000000  1
  Sr  Sr19  1  0.50000000  0.75000000  1.00000000  1
  Sr  Sr20  1  1.00000000  0.25000000  0.50000000  1
  Sr  Sr21  1  1.00000000  0.25000000  1.00000000  1
  Sr  Sr22  1  1.00000000  0.75000000  0.50000000  1
  Sr  Sr23  1  1.00000000  0.75000000  1.00000000  1
  Sr  Sr24  1  0.25000000  0.50000000  0.50000000  1
  Sr  Sr25  1  0.25000000  0.50000000  1.00000000  1
  Sr  Sr26  1  0.25000000  1.00000000  0.50000000  1
  Sr  Sr27  1  0.25000000  1.00000000  1.00000000  1
  Sr  Sr28  1  0.75000000  0.50000000  0.50000000  1
  Sr  Sr29  1  0.75000000  0.50000000  1.00000000  1
  Sr  Sr30  1  0.75000000  1.00000000  0.50000000  1
  Sr  Sr31  1  0.75000000  1.00000000  1.00000000  1
  O  O32  1  0.00000000  0.00000000  0.00000000  1
  O  O33  1  0.00000000  0.00000000  0.50000000  1
  O  O34  1  0.00000000  0.50000000  0.00000000  1
  O  O35  1  0.00000000  0.50000000  0.50000000  1
  O  O36  1  0.50000000  0.00000000  0.00000000  1
  O  O37  1  0.50000000  0.00000000  0.50000000  1
  O  O38  1  0.50000000  0.50000000  0.00000000  1
  O  O39  1  0.50000000  0.50000000  0.50000000  1
  O  O40  1  0.25000000  0.25000000  0.00000000  1
  O  O41  1  0.25000000  0.25000000  0.50000000  1
  O  O42  1  0.25000000  0.75000000  0.00000000  1
  O  O43  1  0.25000000  0.75000000  0.50000000  1
  O  O44  1  0.75000000  0.25000000  0.00000000  1
  O  O45  1  0.75000000  0.25000000  0.50000000  1
  O  O46  1  0.75000000  0.75000000  0.00000000  1
  O  O47  1  0.75000000  0.75000000  0.50000000  1
  O  O48  1  0.25000000  0.00000000  0.25000000  1
  O  O49  1  0.25000000  0.00000000  0.75000000  1
  O  O50  1  0.25000000  0.50000000  0.25000000  1
  O  O51  1  0.25000000  0.50000000  0.75000000  1
  O  O52  1  0.75000000  0.00000000  0.25000000  1
  O  O53  1  0.75000000  0.00000000  0.75000000  1
  O  O54  1  0.75000000  0.50000000  0.25000000  1
  O  O55  1  0.75000000  0.50000000  0.75000000  1
  O  O56  1  0.00000000  0.25000000  0.25000000  1
  O  O57  1  0.00000000  0.25000000  0.75000000  1
  O  O58  1  0.00000000  0.75000000  0.25000000  1
  O  O59  1  0.00000000  0.75000000  0.75000000  1
  O  O60  1  0.50000000  0.25000000  0.25000000  1
  O  O61  1  0.50000000  0.25000000  0.75000000  1
  O  O62  1  0.50000000  0.75000000  0.25000000  1
  O  O63  1  0.50000000  0.75000000  0.75000000  1
