# generated using pymatgen
data_Ba4InSbO8
_symmetry_space_group_name_H-M   'P 1'
_cell_length_a   11.84030788
_cell_length_b   13.26784078
_cell_length_c   11.87651132
_cell_angle_alpha   90.00000000
_cell_angle_beta   90.00000000
_cell_angle_gamma   90.00000000
_symmetry_Int_Tables_number   1
_chemical_formula_structural   Ba4InSbO8
_chemical_formula_sum   'Ba32 In8 Sb8 O64'
_cell_volume   1865.74434409
_cell_formula_units_Z   8
loop_
 _symmetry_equiv_pos_site_id
 _symmetry_equiv_pos_as_xyz
  1  'x, y, z'
loop_
 _atom_site_type_symbol
 _atom_site_label
 _atom_site_symmetry_multiplicity
 _atom_site_fract_x
 _atom_site_fract_y
 _atom_site_fract_z
 _atom_site_occupancy
  Ba  Ba0  1  0.25000000  0.14521689  0.00000000  1
  Ba  Ba1  1  0.25000000  0.14521689  0.50000000  1
  Ba  Ba2  1  0.75000000  0.14521689  0.00000000  1
  Ba  Ba3  1  0.75000000  0.14521689  0.50000000  1
  Ba  Ba4  1  0.50000000  0.64521689  0.00000000  1
  Ba  Ba5  1  0.50000000  0.64521689  0.50000000  1
  Ba  Ba6  1  1.00000000  0.64521689  0.00000000  1
  Ba  Ba7  1  1.00000000  0.64521689  0.50000000  1
  Ba  Ba8  1  0.25000000  -0.35458729  0.25000000  1
  Ba  Ba9  1  0.25000000  -0.35458729  0.75000000  1
  Ba  Ba10  1  0.75000000  -0.35458729  0.25000000  1
  Ba  Ba11  1  0.75000000  -0.35458729  0.75000000  1
  Ba  Ba12  1  0.50000000  0.14541271  0.25000000  1
  Ba  Ba13  1  0.50000000  0.14541271  0.75000000  1
  Ba  Ba14  1  1.00000000  0.14541271  0.25000000  1
  Ba  Ba15  1  1.00000000  0.14541271  0.75000000  1
  Ba  Ba16  1  0.25000000  0.35458729  0.25000000  1
  Ba  Ba17  1  0.25000000  0.35458729  0.75000000  1
  Ba  Ba18  1  0.75000000  0.35458729  0.25000000  1
  Ba  Ba19  1  0.75000000  0.35458729  0.75000000  1
  Ba  Ba20  1  0.50000000  0.85458729  0.25000000  1
  Ba  Ba21  1  0.50000000  0.85458729  0.75000000  1
  Ba  Ba22  1  1.00000000  0.85458729  0.25000000  1
  Ba  Ba23  1  1.00000000  0.85458729  0.75000000  1
  Ba  Ba24  1  0.25000000  -0.14521689  0.00000000  1
  Ba  Ba25  1  0.25000000  -0.14521689  0.50000000  1
  Ba  Ba26  1  0.75000000  -0.14521689  0.00000000  1
  Ba  Ba27  1  0.75000000  -0.14521689  0.50000000  1
  Ba  Ba28  1  0.50000000  0.35478311  0.00000000  1
  Ba  Ba29  1  0.50000000  0.35478311  0.50000000  1
  Ba  Ba30  1  1.00000000  0.35478311  0.00000000  1
  Ba  Ba31  1  1.00000000  0.35478311  0.50000000  1
  In  In32  1  -0.00000000  0.00000000  0.00000000  1
  In  In33  1  -0.00000000  0.00000000  0.50000000  1
  In  In34  1  0.50000000  0.00000000  0.00000000  1
  In  In35  1  0.50000000  0.00000000  0.50000000  1
  In  In36  1  0.25000000  0.50000000  0.00000000  1
  In  In37  1  0.25000000  0.50000000  0.50000000  1
  In  In38  1  0.75000000  0.50000000  0.00000000  1
  In  In39  1  0.75000000  0.50000000  0.50000000  1
  Sb  Sb40  1  0.25000000  0.00000000  0.25000000  1
  Sb  Sb41  1  0.25000000  0.00000000  0.75000000  1
  Sb  Sb42  1  0.75000000  0.00000000  0.25000000  1
  Sb  Sb43  1  0.75000000  0.00000000  0.75000000  1
  Sb  Sb44  1  0.50000000  0.50000000  0.25000000  1
  Sb  Sb45  1  0.50000000  0.50000000  0.75000000  1
  Sb  Sb46  1  1.00000000  0.50000000  0.25000000  1
  Sb  Sb47  1  1.00000000  0.50000000  0.75000000  1
  O  O48  1  0.13031481  0.00000000  0.36778578  1
  O  O49  1  0.13031481  0.00000000  0.86778578  1
  O  O50  1  0.63031481  0.00000000  0.36778578  1
  O  O51  1  0.63031481  0.00000000  0.86778578  1
  O  O52  1  0.38031481  0.50000000  0.36778578  1
  O  O53  1  0.38031481  0.50000000  0.86778578  1
  O  O54  1  0.88031481  0.50000000  0.36778578  1
  O  O55  1  0.88031481  0.50000000  0.86778578  1
  O  O56  1  0.36968519  -0.00000000  0.13221422  1
  O  O57  1  0.36968519  -0.00000000  0.63221422  1
  O  O58  1  0.86968519  -0.00000000  0.13221422  1
  O  O59  1  0.86968519  -0.00000000  0.63221422  1
  O  O60  1  0.61968519  0.50000000  0.13221422  1
  O  O61  1  0.61968519  0.50000000  0.63221422  1
  O  O62  1  1.11968519  0.50000000  0.13221422  1
  O  O63  1  1.11968519  0.50000000  0.63221422  1
  O  O64  1  0.36968519  -0.00000000  0.36778578  1
  O  O65  1  0.36968519  -0.00000000  0.86778578  1
  O  O66  1  0.86968519  -0.00000000  0.36778578  1
  O  O67  1  0.86968519  -0.00000000  0.86778578  1
  O  O68  1  0.61968519  0.50000000  0.36778578  1
  O  O69  1  0.61968519  0.50000000  0.86778578  1
  O  O70  1  1.11968519  0.50000000  0.36778578  1
  O  O71  1  1.11968519  0.50000000  0.86778578  1
  O  O72  1  0.13031481  0.00000000  0.13221422  1
  O  O73  1  0.13031481  0.00000000  0.63221422  1
  O  O74  1  0.63031481  0.00000000  0.13221422  1
  O  O75  1  0.63031481  0.00000000  0.63221422  1
  O  O76  1  0.38031481  0.50000000  0.13221422  1
  O  O77  1  0.38031481  0.50000000  0.63221422  1
  O  O78  1  0.88031481  0.50000000  0.13221422  1
  O  O79  1  0.88031481  0.50000000  0.63221422  1
  O  O80  1  0.25000000  0.33806487  0.00000000  1
  O  O81  1  0.25000000  0.33806487  0.50000000  1
  O  O82  1  0.75000000  0.33806487  0.00000000  1
  O  O83  1  0.75000000  0.33806487  0.50000000  1
  O  O84  1  0.50000000  0.83806487  0.00000000  1
  O  O85  1  0.50000000  0.83806487  0.50000000  1
  O  O86  1  1.00000000  0.83806487  0.00000000  1
  O  O87  1  1.00000000  0.83806487  0.50000000  1
  O  O88  1  0.25000000  -0.15292440  0.25000000  1
  O  O89  1  0.25000000  -0.15292440  0.75000000  1
  O  O90  1  0.75000000  -0.15292440  0.25000000  1
  O  O91  1  0.75000000  -0.15292440  0.75000000  1
  O  O92  1  0.50000000  0.34707560  0.25000000  1
  O  O93  1  0.50000000  0.34707560  0.75000000  1
  O  O94  1  1.00000000  0.34707560  0.25000000  1
  O  O95  1  1.00000000  0.34707560  0.75000000  1
  O  O96  1  0.25000000  0.15292440  0.25000000  1
  O  O97  1  0.25000000  0.15292440  0.75000000  1
  O  O98  1  0.75000000  0.15292440  0.25000000  1
  O  O99  1  0.75000000  0.15292440  0.75000000  1
  O  O100  1  0.50000000  0.65292440  0.25000000  1
  O  O101  1  0.50000000  0.65292440  0.75000000  1
  O  O102  1  1.00000000  0.65292440  0.25000000  1
  O  O103  1  1.00000000  0.65292440  0.75000000  1
  O  O104  1  0.25000000  -0.33806487  0.00000000  1
  O  O105  1  0.25000000  -0.33806487  0.50000000  1
  O  O106  1  0.75000000  -0.33806487  0.00000000  1
  O  O107  1  0.75000000  -0.33806487  0.50000000  1
  O  O108  1  0.50000000  0.16193513  0.00000000  1
  O  O109  1  0.50000000  0.16193513  0.50000000  1
  O  O110  1  1.00000000  0.16193513  0.00000000  1
  O  O111  1  1.00000000  0.16193513  0.50000000  1
