# generated using pymatgen
data_Sc2Si2O7
_symmetry_space_group_name_H-M   'P 1'
_cell_length_a   12.91003001
_cell_length_b   16.94070349
_cell_length_c   14.09208138
_cell_angle_alpha   90.00000000
_cell_angle_beta   102.55659255
_cell_angle_gamma   90.00000000
_symmetry_Int_Tables_number   1
_chemical_formula_structural   Sc2Si2O7
_chemical_formula_sum   'Sc48 Si48 O168'
_cell_volume   3008.29226570
_cell_formula_units_Z   24
loop_
 _symmetry_equiv_pos_site_id
 _symmetry_equiv_pos_as_xyz
  1  'x, y, z'
loop_
 _atom_site_type_symbol
 _atom_site_label
 _atom_site_symmetry_multiplicity
 _atom_site_fract_x
 _atom_site_fract_y
 _atom_site_fract_z
 _atom_site_occupancy
  Sc  Sc0  1  0.25000000  -0.09518313  0.00000000  1
  Sc  Sc1  1  0.25000000  -0.09518313  0.33333333  1
  Sc  Sc2  1  0.25000000  -0.09518313  0.66666667  1
  Sc  Sc3  1  0.25000000  0.40481687  0.00000000  1
  Sc  Sc4  1  0.25000000  0.40481687  0.33333333  1
  Sc  Sc5  1  0.25000000  0.40481687  0.66666667  1
  Sc  Sc6  1  0.75000000  -0.09518313  0.00000000  1
  Sc  Sc7  1  0.75000000  -0.09518313  0.33333333  1
  Sc  Sc8  1  0.75000000  -0.09518313  0.66666667  1
  Sc  Sc9  1  0.75000000  0.40481687  0.00000000  1
  Sc  Sc10  1  0.75000000  0.40481687  0.33333333  1
  Sc  Sc11  1  0.75000000  0.40481687  0.66666667  1
  Sc  Sc12  1  0.50000000  0.15481687  0.00000000  1
  Sc  Sc13  1  0.50000000  0.15481687  0.33333333  1
  Sc  Sc14  1  0.50000000  0.15481687  0.66666667  1
  Sc  Sc15  1  0.50000000  0.65481687  0.00000000  1
  Sc  Sc16  1  0.50000000  0.65481687  0.33333333  1
  Sc  Sc17  1  0.50000000  0.65481687  0.66666667  1
  Sc  Sc18  1  1.00000000  0.15481687  0.00000000  1
  Sc  Sc19  1  1.00000000  0.15481687  0.33333333  1
  Sc  Sc20  1  1.00000000  0.15481687  0.66666667  1
  Sc  Sc21  1  1.00000000  0.65481687  0.00000000  1
  Sc  Sc22  1  1.00000000  0.65481687  0.33333333  1
  Sc  Sc23  1  1.00000000  0.65481687  0.66666667  1
  Sc  Sc24  1  0.25000000  0.09518313  0.00000000  1
  Sc  Sc25  1  0.25000000  0.09518313  0.33333333  1
  Sc  Sc26  1  0.25000000  0.09518313  0.66666667  1
  Sc  Sc27  1  0.25000000  0.59518313  0.00000000  1
  Sc  Sc28  1  0.25000000  0.59518313  0.33333333  1
  Sc  Sc29  1  0.25000000  0.59518313  0.66666667  1
  Sc  Sc30  1  0.75000000  0.09518313  0.00000000  1
  Sc  Sc31  1  0.75000000  0.09518313  0.33333333  1
  Sc  Sc32  1  0.75000000  0.09518313  0.66666667  1
  Sc  Sc33  1  0.75000000  0.59518313  0.00000000  1
  Sc  Sc34  1  0.75000000  0.59518313  0.33333333  1
  Sc  Sc35  1  0.75000000  0.59518313  0.66666667  1
  Sc  Sc36  1  0.50000000  0.34518313  0.00000000  1
  Sc  Sc37  1  0.50000000  0.34518313  0.33333333  1
  Sc  Sc38  1  0.50000000  0.34518313  0.66666667  1
  Sc  Sc39  1  0.50000000  0.84518313  0.00000000  1
  Sc  Sc40  1  0.50000000  0.84518313  0.33333333  1
  Sc  Sc41  1  0.50000000  0.84518313  0.66666667  1
  Sc  Sc42  1  1.00000000  0.34518313  0.00000000  1
  Sc  Sc43  1  1.00000000  0.34518313  0.33333333  1
  Sc  Sc44  1  1.00000000  0.34518313  0.66666667  1
  Sc  Sc45  1  1.00000000  0.84518313  0.00000000  1
  Sc  Sc46  1  1.00000000  0.84518313  0.33333333  1
  Sc  Sc47  1  1.00000000  0.84518313  0.66666667  1
  Si  Si48  1  0.38646319  -0.00000000  0.19758226  1
  Si  Si49  1  0.38646319  -0.00000000  0.53091559  1
  Si  Si50  1  0.38646319  -0.00000000  0.86424892  1
  Si  Si51  1  0.38646319  0.50000000  0.19758226  1
  Si  Si52  1  0.38646319  0.50000000  0.53091559  1
  Si  Si53  1  0.38646319  0.50000000  0.86424892  1
  Si  Si54  1  0.88646319  -0.00000000  0.19758226  1
  Si  Si55  1  0.88646319  -0.00000000  0.53091559  1
  Si  Si56  1  0.88646319  -0.00000000  0.86424892  1
  Si  Si57  1  0.88646319  0.50000000  0.19758226  1
  Si  Si58  1  0.88646319  0.50000000  0.53091559  1
  Si  Si59  1  0.88646319  0.50000000  0.86424892  1
  Si  Si60  1  0.63646319  0.25000000  0.19758226  1
  Si  Si61  1  0.63646319  0.25000000  0.53091559  1
  Si  Si62  1  0.63646319  0.25000000  0.86424892  1
  Si  Si63  1  0.63646319  0.75000000  0.19758226  1
  Si  Si64  1  0.63646319  0.75000000  0.53091559  1
  Si  Si65  1  0.63646319  0.75000000  0.86424892  1
  Si  Si66  1  1.13646319  0.25000000  0.19758226  1
  Si  Si67  1  1.13646319  0.25000000  0.53091559  1
  Si  Si68  1  1.13646319  0.25000000  0.86424892  1
  Si  Si69  1  1.13646319  0.75000000  0.19758226  1
  Si  Si70  1  1.13646319  0.75000000  0.53091559  1
  Si  Si71  1  1.13646319  0.75000000  0.86424892  1
  Si  Si72  1  0.11353681  0.00000000  0.13575108  1
  Si  Si73  1  0.11353681  0.00000000  0.46908441  1
  Si  Si74  1  0.11353681  0.00000000  0.80241774  1
  Si  Si75  1  0.11353681  0.50000000  0.13575108  1
  Si  Si76  1  0.11353681  0.50000000  0.46908441  1
  Si  Si77  1  0.11353681  0.50000000  0.80241774  1
  Si  Si78  1  0.61353681  0.00000000  0.13575108  1
  Si  Si79  1  0.61353681  0.00000000  0.46908441  1
  Si  Si80  1  0.61353681  0.00000000  0.80241774  1
  Si  Si81  1  0.61353681  0.50000000  0.13575108  1
  Si  Si82  1  0.61353681  0.50000000  0.46908441  1
  Si  Si83  1  0.61353681  0.50000000  0.80241774  1
  Si  Si84  1  0.36353681  0.25000000  0.13575108  1
  Si  Si85  1  0.36353681  0.25000000  0.46908441  1
  Si  Si86  1  0.36353681  0.25000000  0.80241774  1
  Si  Si87  1  0.36353681  0.75000000  0.13575108  1
  Si  Si88  1  0.36353681  0.75000000  0.46908441  1
  Si  Si89  1  0.36353681  0.75000000  0.80241774  1
  Si  Si90  1  0.86353681  0.25000000  0.13575108  1
  Si  Si91  1  0.86353681  0.25000000  0.46908441  1
  Si  Si92  1  0.86353681  0.25000000  0.80241774  1
  Si  Si93  1  0.86353681  0.75000000  0.13575108  1
  Si  Si94  1  0.86353681  0.75000000  0.46908441  1
  Si  Si95  1  0.86353681  0.75000000  0.80241774  1
  O  O96  1  0.11857117  0.07977809  0.07054964  1
  O  O97  1  0.11857117  0.07977809  0.40388298  1
  O  O98  1  0.11857117  0.07977809  0.73721631  1
  O  O99  1  0.11857117  0.57977809  0.07054964  1
  O  O100  1  0.11857117  0.57977809  0.40388298  1
  O  O101  1  0.11857117  0.57977809  0.73721631  1
  O  O102  1  0.61857117  0.07977809  0.07054964  1
  O  O103  1  0.61857117  0.07977809  0.40388298  1
  O  O104  1  0.61857117  0.07977809  0.73721631  1
  O  O105  1  0.61857117  0.57977809  0.07054964  1
  O  O106  1  0.61857117  0.57977809  0.40388298  1
  O  O107  1  0.61857117  0.57977809  0.73721631  1
  O  O108  1  0.36857117  0.32977809  0.07054964  1
  O  O109  1  0.36857117  0.32977809  0.40388298  1
  O  O110  1  0.36857117  0.32977809  0.73721631  1
  O  O111  1  0.36857117  0.82977809  0.07054964  1
  O  O112  1  0.36857117  0.82977809  0.40388298  1
  O  O113  1  0.36857117  0.82977809  0.73721631  1
  O  O114  1  0.86857117  0.32977809  0.07054964  1
  O  O115  1  0.86857117  0.32977809  0.40388298  1
  O  O116  1  0.86857117  0.32977809  0.73721631  1
  O  O117  1  0.86857117  0.82977809  0.07054964  1
  O  O118  1  0.86857117  0.82977809  0.40388298  1
  O  O119  1  0.86857117  0.82977809  0.73721631  1
  O  O120  1  0.38142883  0.07977809  0.26278369  1
  O  O121  1  0.38142883  0.07977809  0.59611702  1
  O  O122  1  0.38142883  0.07977809  0.92945036  1
  O  O123  1  0.38142883  0.57977809  0.26278369  1
  O  O124  1  0.38142883  0.57977809  0.59611702  1
  O  O125  1  0.38142883  0.57977809  0.92945036  1
  O  O126  1  0.88142883  0.07977809  0.26278369  1
  O  O127  1  0.88142883  0.07977809  0.59611702  1
  O  O128  1  0.88142883  0.07977809  0.92945036  1
  O  O129  1  0.88142883  0.57977809  0.26278369  1
  O  O130  1  0.88142883  0.57977809  0.59611702  1
  O  O131  1  0.88142883  0.57977809  0.92945036  1
  O  O132  1  0.63142883  0.32977809  0.26278369  1
  O  O133  1  0.63142883  0.32977809  0.59611702  1
  O  O134  1  0.63142883  0.32977809  0.92945036  1
  O  O135  1  0.63142883  0.82977809  0.26278369  1
  O  O136  1  0.63142883  0.82977809  0.59611702  1
  O  O137  1  0.63142883  0.82977809  0.92945036  1
  O  O138  1  1.13142883  0.32977809  0.26278369  1
  O  O139  1  1.13142883  0.32977809  0.59611702  1
  O  O140  1  1.13142883  0.32977809  0.92945036  1
  O  O141  1  1.13142883  0.82977809  0.26278369  1
  O  O142  1  1.13142883  0.82977809  0.59611702  1
  O  O143  1  1.13142883  0.82977809  0.92945036  1
  O  O144  1  0.38142883  -0.07977809  0.26278369  1
  O  O145  1  0.38142883  -0.07977809  0.59611702  1
  O  O146  1  0.38142883  -0.07977809  0.92945036  1
  O  O147  1  0.38142883  0.42022191  0.26278369  1
  O  O148  1  0.38142883  0.42022191  0.59611702  1
  O  O149  1  0.38142883  0.42022191  0.92945036  1
  O  O150  1  0.88142883  -0.07977809  0.26278369  1
  O  O151  1  0.88142883  -0.07977809  0.59611702  1
  O  O152  1  0.88142883  -0.07977809  0.92945036  1
  O  O153  1  0.88142883  0.42022191  0.26278369  1
  O  O154  1  0.88142883  0.42022191  0.59611702  1
  O  O155  1  0.88142883  0.42022191  0.92945036  1
  O  O156  1  0.63142883  0.17022191  0.26278369  1
  O  O157  1  0.63142883  0.17022191  0.59611702  1
  O  O158  1  0.63142883  0.17022191  0.92945036  1
  O  O159  1  0.63142883  0.67022191  0.26278369  1
  O  O160  1  0.63142883  0.67022191  0.59611702  1
  O  O161  1  0.63142883  0.67022191  0.92945036  1
  O  O162  1  1.13142883  0.17022191  0.26278369  1
  O  O163  1  1.13142883  0.17022191  0.59611702  1
  O  O164  1  1.13142883  0.17022191  0.92945036  1
  O  O165  1  1.13142883  0.67022191  0.26278369  1
  O  O166  1  1.13142883  0.67022191  0.59611702  1
  O  O167  1  1.13142883  0.67022191  0.92945036  1
  O  O168  1  0.11857117  -0.07977809  0.07054964  1
  O  O169  1  0.11857117  -0.07977809  0.40388298  1
  O  O170  1  0.11857117  -0.07977809  0.73721631  1
  O  O171  1  0.11857117  0.42022191  0.07054964  1
  O  O172  1  0.11857117  0.42022191  0.40388298  1
  O  O173  1  0.11857117  0.42022191  0.73721631  1
  O  O174  1  0.61857117  -0.07977809  0.07054964  1
  O  O175  1  0.61857117  -0.07977809  0.40388298  1
  O  O176  1  0.61857117  -0.07977809  0.73721631  1
  O  O177  1  0.61857117  0.42022191  0.07054964  1
  O  O178  1  0.61857117  0.42022191  0.40388298  1
  O  O179  1  0.61857117  0.42022191  0.73721631  1
  O  O180  1  0.36857117  0.17022191  0.07054964  1
  O  O181  1  0.36857117  0.17022191  0.40388298  1
  O  O182  1  0.36857117  0.17022191  0.73721631  1
  O  O183  1  0.36857117  0.67022191  0.07054964  1
  O  O184  1  0.36857117  0.67022191  0.40388298  1
  O  O185  1  0.36857117  0.67022191  0.73721631  1
  O  O186  1  0.86857117  0.17022191  0.07054964  1
  O  O187  1  0.86857117  0.17022191  0.40388298  1
  O  O188  1  0.86857117  0.17022191  0.73721631  1
  O  O189  1  0.86857117  0.67022191  0.07054964  1
  O  O190  1  0.86857117  0.67022191  0.40388298  1
  O  O191  1  0.86857117  0.67022191  0.73721631  1
  O  O192  1  0.00000000  0.00000000  0.16666667  1
  O  O193  1  0.00000000  0.00000000  0.50000000  1
  O  O194  1  0.00000000  0.00000000  0.83333333  1
  O  O195  1  0.00000000  0.50000000  0.16666667  1
  O  O196  1  0.00000000  0.50000000  0.50000000  1
  O  O197  1  0.00000000  0.50000000  0.83333333  1
  O  O198  1  0.50000000  0.00000000  0.16666667  1
  O  O199  1  0.50000000  0.00000000  0.50000000  1
  O  O200  1  0.50000000  0.00000000  0.83333333  1
  O  O201  1  0.50000000  0.50000000  0.16666667  1
  O  O202  1  0.50000000  0.50000000  0.50000000  1
  O  O203  1  0.50000000  0.50000000  0.83333333  1
  O  O204  1  0.25000000  0.25000000  0.16666667  1
  O  O205  1  0.25000000  0.25000000  0.50000000  1
  O  O206  1  0.25000000  0.25000000  0.83333333  1
  O  O207  1  0.25000000  0.75000000  0.16666667  1
  O  O208  1  0.25000000  0.75000000  0.50000000  1
  O  O209  1  0.25000000  0.75000000  0.83333333  1
  O  O210  1  0.75000000  0.25000000  0.16666667  1
  O  O211  1  0.75000000  0.25000000  0.50000000  1
  O  O212  1  0.75000000  0.25000000  0.83333333  1
  O  O213  1  0.75000000  0.75000000  0.16666667  1
  O  O214  1  0.75000000  0.75000000  0.50000000  1
  O  O215  1  0.75000000  0.75000000  0.83333333  1
  O  O216  1  0.19911574  0.00000000  0.24066010  1
  O  O217  1  0.19911574  0.00000000  0.57399343  1
  O  O218  1  0.19911574  0.00000000  0.90732676  1
  O  O219  1  0.19911574  0.50000000  0.24066010  1
  O  O220  1  0.19911574  0.50000000  0.57399343  1
  O  O221  1  0.19911574  0.50000000  0.90732676  1
  O  O222  1  0.69911574  0.00000000  0.24066010  1
  O  O223  1  0.69911574  0.00000000  0.57399343  1
  O  O224  1  0.69911574  0.00000000  0.90732676  1
  O  O225  1  0.69911574  0.50000000  0.24066010  1
  O  O226  1  0.69911574  0.50000000  0.57399343  1
  O  O227  1  0.69911574  0.50000000  0.90732676  1
  O  O228  1  0.44911574  0.25000000  0.24066010  1
  O  O229  1  0.44911574  0.25000000  0.57399343  1
  O  O230  1  0.44911574  0.25000000  0.90732676  1
  O  O231  1  0.44911574  0.75000000  0.24066010  1
  O  O232  1  0.44911574  0.75000000  0.57399343  1
  O  O233  1  0.44911574  0.75000000  0.90732676  1
  O  O234  1  0.94911574  0.25000000  0.24066010  1
  O  O235  1  0.94911574  0.25000000  0.57399343  1
  O  O236  1  0.94911574  0.25000000  0.90732676  1
  O  O237  1  0.94911574  0.75000000  0.24066010  1
  O  O238  1  0.94911574  0.75000000  0.57399343  1
  O  O239  1  0.94911574  0.75000000  0.90732676  1
  O  O240  1  0.30088426  0.00000000  0.09267324  1
  O  O241  1  0.30088426  0.00000000  0.42600657  1
  O  O242  1  0.30088426  0.00000000  0.75933990  1
  O  O243  1  0.30088426  0.50000000  0.09267324  1
  O  O244  1  0.30088426  0.50000000  0.42600657  1
  O  O245  1  0.30088426  0.50000000  0.75933990  1
  O  O246  1  0.80088426  0.00000000  0.09267324  1
  O  O247  1  0.80088426  0.00000000  0.42600657  1
  O  O248  1  0.80088426  0.00000000  0.75933990  1
  O  O249  1  0.80088426  0.50000000  0.09267324  1
  O  O250  1  0.80088426  0.50000000  0.42600657  1
  O  O251  1  0.80088426  0.50000000  0.75933990  1
  O  O252  1  0.55088426  0.25000000  0.09267324  1
  O  O253  1  0.55088426  0.25000000  0.42600657  1
  O  O254  1  0.55088426  0.25000000  0.75933990  1
  O  O255  1  0.55088426  0.75000000  0.09267324  1
  O  O256  1  0.55088426  0.75000000  0.42600657  1
  O  O257  1  0.55088426  0.75000000  0.75933990  1
  O  O258  1  1.05088426  0.25000000  0.09267324  1
  O  O259  1  1.05088426  0.25000000  0.42600657  1
  O  O260  1  1.05088426  0.25000000  0.75933990  1
  O  O261  1  1.05088426  0.75000000  0.09267324  1
  O  O262  1  1.05088426  0.75000000  0.42600657  1
  O  O263  1  1.05088426  0.75000000  0.75933990  1
