# generated using pymatgen
data_Ba2Ti(SiO4)2
_symmetry_space_group_name_H-M   'P 1'
_cell_length_a   17.10442830
_cell_length_b   17.10442830
_cell_length_c   15.65396212
_cell_angle_alpha   90.00000000
_cell_angle_beta   90.00000000
_cell_angle_gamma   90.00000000
_symmetry_Int_Tables_number   1
_chemical_formula_structural   Ba2Ti(SiO4)2
_chemical_formula_sum   'Ba48 Ti24 Si48 O192'
_cell_volume   4579.74612915
_cell_formula_units_Z   24
loop_
 _symmetry_equiv_pos_site_id
 _symmetry_equiv_pos_as_xyz
  1  'x, y, z'
loop_
 _atom_site_type_symbol
 _atom_site_label
 _atom_site_symmetry_multiplicity
 _atom_site_fract_x
 _atom_site_fract_y
 _atom_site_fract_z
 _atom_site_occupancy
  Ba  Ba0  1  0.33641154  0.41358846  0.33051706  1
  Ba  Ba1  1  0.33641154  0.41358846  0.66385039  1
  Ba  Ba2  1  0.33641154  0.41358846  0.99718372  1
  Ba  Ba3  1  0.83641154  0.41358846  0.33051706  1
  Ba  Ba4  1  0.83641154  0.41358846  0.66385039  1
  Ba  Ba5  1  0.83641154  0.41358846  0.99718372  1
  Ba  Ba6  1  0.33641154  -0.08641154  0.33051706  1
  Ba  Ba7  1  0.33641154  -0.08641154  0.66385039  1
  Ba  Ba8  1  0.33641154  -0.08641154  0.99718372  1
  Ba  Ba9  1  0.83641154  -0.08641154  0.33051706  1
  Ba  Ba10  1  0.83641154  -0.08641154  0.66385039  1
  Ba  Ba11  1  0.83641154  -0.08641154  0.99718372  1
  Ba  Ba12  1  0.41358846  0.16358846  0.33051706  1
  Ba  Ba13  1  0.41358846  0.16358846  0.66385039  1
  Ba  Ba14  1  0.41358846  0.16358846  0.99718372  1
  Ba  Ba15  1  0.91358846  0.16358846  0.33051706  1
  Ba  Ba16  1  0.91358846  0.16358846  0.66385039  1
  Ba  Ba17  1  0.91358846  0.16358846  0.99718372  1
  Ba  Ba18  1  0.41358846  -0.33641154  0.33051706  1
  Ba  Ba19  1  0.41358846  -0.33641154  0.66385039  1
  Ba  Ba20  1  0.41358846  -0.33641154  0.99718372  1
  Ba  Ba21  1  0.91358846  -0.33641154  0.33051706  1
  Ba  Ba22  1  0.91358846  -0.33641154  0.66385039  1
  Ba  Ba23  1  0.91358846  -0.33641154  0.99718372  1
  Ba  Ba24  1  0.08641154  0.33641154  0.33051706  1
  Ba  Ba25  1  0.08641154  0.33641154  0.66385039  1
  Ba  Ba26  1  0.08641154  0.33641154  0.99718372  1
  Ba  Ba27  1  0.58641154  0.33641154  0.33051706  1
  Ba  Ba28  1  0.58641154  0.33641154  0.66385039  1
  Ba  Ba29  1  0.58641154  0.33641154  0.99718372  1
  Ba  Ba30  1  0.08641154  -0.16358846  0.33051706  1
  Ba  Ba31  1  0.08641154  -0.16358846  0.66385039  1
  Ba  Ba32  1  0.08641154  -0.16358846  0.99718372  1
  Ba  Ba33  1  0.58641154  -0.16358846  0.33051706  1
  Ba  Ba34  1  0.58641154  -0.16358846  0.66385039  1
  Ba  Ba35  1  0.58641154  -0.16358846  0.99718372  1
  Ba  Ba36  1  0.16358846  0.08641154  0.33051706  1
  Ba  Ba37  1  0.16358846  0.08641154  0.66385039  1
  Ba  Ba38  1  0.16358846  0.08641154  0.99718372  1
  Ba  Ba39  1  0.66358846  0.08641154  0.33051706  1
  Ba  Ba40  1  0.66358846  0.08641154  0.66385039  1
  Ba  Ba41  1  0.66358846  0.08641154  0.99718372  1
  Ba  Ba42  1  0.16358846  -0.41358846  0.33051706  1
  Ba  Ba43  1  0.16358846  -0.41358846  0.66385039  1
  Ba  Ba44  1  0.16358846  -0.41358846  0.99718372  1
  Ba  Ba45  1  0.66358846  -0.41358846  0.33051706  1
  Ba  Ba46  1  0.66358846  -0.41358846  0.66385039  1
  Ba  Ba47  1  0.66358846  -0.41358846  0.99718372  1
  Ti  Ti48  1  0.25000000  0.25000000  0.17871598  1
  Ti  Ti49  1  0.25000000  0.25000000  0.51204931  1
  Ti  Ti50  1  0.25000000  0.25000000  0.84538264  1
  Ti  Ti51  1  0.75000000  0.25000000  0.17871598  1
  Ti  Ti52  1  0.75000000  0.25000000  0.51204931  1
  Ti  Ti53  1  0.75000000  0.25000000  0.84538264  1
  Ti  Ti54  1  0.25000000  -0.25000000  0.17871598  1
  Ti  Ti55  1  0.25000000  -0.25000000  0.51204931  1
  Ti  Ti56  1  0.25000000  -0.25000000  0.84538264  1
  Ti  Ti57  1  0.75000000  -0.25000000  0.17871598  1
  Ti  Ti58  1  0.75000000  -0.25000000  0.51204931  1
  Ti  Ti59  1  0.75000000  -0.25000000  0.84538264  1
  Ti  Ti60  1  0.00000000  0.50000000  0.17871598  1
  Ti  Ti61  1  0.00000000  0.50000000  0.51204931  1
  Ti  Ti62  1  0.00000000  0.50000000  0.84538264  1
  Ti  Ti63  1  0.50000000  0.50000000  0.17871598  1
  Ti  Ti64  1  0.50000000  0.50000000  0.51204931  1
  Ti  Ti65  1  0.50000000  0.50000000  0.84538264  1
  Ti  Ti66  1  0.00000000  0.00000000  0.17871598  1
  Ti  Ti67  1  0.00000000  0.00000000  0.51204931  1
  Ti  Ti68  1  0.00000000  0.00000000  0.84538264  1
  Ti  Ti69  1  0.50000000  0.00000000  0.17871598  1
  Ti  Ti70  1  0.50000000  0.00000000  0.51204931  1
  Ti  Ti71  1  0.50000000  0.00000000  0.84538264  1
  Si  Si72  1  0.43580845  0.31419155  0.16990259  1
  Si  Si73  1  0.43580845  0.31419155  0.50323592  1
  Si  Si74  1  0.43580845  0.31419155  0.83656926  1
  Si  Si75  1  0.93580845  0.31419155  0.16990259  1
  Si  Si76  1  0.93580845  0.31419155  0.50323592  1
  Si  Si77  1  0.93580845  0.31419155  0.83656926  1
  Si  Si78  1  0.43580845  -0.18580845  0.16990259  1
  Si  Si79  1  0.43580845  -0.18580845  0.50323592  1
  Si  Si80  1  0.43580845  -0.18580845  0.83656926  1
  Si  Si81  1  0.93580845  -0.18580845  0.16990259  1
  Si  Si82  1  0.93580845  -0.18580845  0.50323592  1
  Si  Si83  1  0.93580845  -0.18580845  0.83656926  1
  Si  Si84  1  0.31419155  0.06419155  0.16990259  1
  Si  Si85  1  0.31419155  0.06419155  0.50323592  1
  Si  Si86  1  0.31419155  0.06419155  0.83656926  1
  Si  Si87  1  0.81419155  0.06419155  0.16990259  1
  Si  Si88  1  0.81419155  0.06419155  0.50323592  1
  Si  Si89  1  0.81419155  0.06419155  0.83656926  1
  Si  Si90  1  0.31419155  -0.43580845  0.16990259  1
  Si  Si91  1  0.31419155  -0.43580845  0.50323592  1
  Si  Si92  1  0.31419155  -0.43580845  0.83656926  1
  Si  Si93  1  0.81419155  -0.43580845  0.16990259  1
  Si  Si94  1  0.81419155  -0.43580845  0.50323592  1
  Si  Si95  1  0.81419155  -0.43580845  0.83656926  1
  Si  Si96  1  0.18580845  0.43580845  0.16990259  1
  Si  Si97  1  0.18580845  0.43580845  0.50323592  1
  Si  Si98  1  0.18580845  0.43580845  0.83656926  1
  Si  Si99  1  0.68580845  0.43580845  0.16990259  1
  Si  Si100  1  0.68580845  0.43580845  0.50323592  1
  Si  Si101  1  0.68580845  0.43580845  0.83656926  1
  Si  Si102  1  0.18580845  -0.06419155  0.16990259  1
  Si  Si103  1  0.18580845  -0.06419155  0.50323592  1
  Si  Si104  1  0.18580845  -0.06419155  0.83656926  1
  Si  Si105  1  0.68580845  -0.06419155  0.16990259  1
  Si  Si106  1  0.68580845  -0.06419155  0.50323592  1
  Si  Si107  1  0.68580845  -0.06419155  0.83656926  1
  Si  Si108  1  0.06419155  0.18580845  0.16990259  1
  Si  Si109  1  0.06419155  0.18580845  0.50323592  1
  Si  Si110  1  0.06419155  0.18580845  0.83656926  1
  Si  Si111  1  0.56419155  0.18580845  0.16990259  1
  Si  Si112  1  0.56419155  0.18580845  0.50323592  1
  Si  Si113  1  0.56419155  0.18580845  0.83656926  1
  Si  Si114  1  0.06419155  -0.31419155  0.16990259  1
  Si  Si115  1  0.06419155  -0.31419155  0.50323592  1
  Si  Si116  1  0.06419155  -0.31419155  0.83656926  1
  Si  Si117  1  0.56419155  -0.31419155  0.16990259  1
  Si  Si118  1  0.56419155  -0.31419155  0.50323592  1
  Si  Si119  1  0.56419155  -0.31419155  0.83656926  1
  O  O120  1  0.25000000  0.25000000  0.06816386  1
  O  O121  1  0.25000000  0.25000000  0.40149719  1
  O  O122  1  0.25000000  0.25000000  0.73483053  1
  O  O123  1  0.75000000  0.25000000  0.06816386  1
  O  O124  1  0.75000000  0.25000000  0.40149719  1
  O  O125  1  0.75000000  0.25000000  0.73483053  1
  O  O126  1  0.25000000  -0.25000000  0.06816386  1
  O  O127  1  0.25000000  -0.25000000  0.40149719  1
  O  O128  1  0.25000000  -0.25000000  0.73483053  1
  O  O129  1  0.75000000  -0.25000000  0.06816386  1
  O  O130  1  0.75000000  -0.25000000  0.40149719  1
  O  O131  1  0.75000000  -0.25000000  0.73483053  1
  O  O132  1  0.00000000  0.50000000  0.06816386  1
  O  O133  1  0.00000000  0.50000000  0.40149719  1
  O  O134  1  0.00000000  0.50000000  0.73483053  1
  O  O135  1  0.50000000  0.50000000  0.06816386  1
  O  O136  1  0.50000000  0.50000000  0.40149719  1
  O  O137  1  0.50000000  0.50000000  0.73483053  1
  O  O138  1  0.00000000  0.00000000  0.06816386  1
  O  O139  1  0.00000000  0.00000000  0.40149719  1
  O  O140  1  0.00000000  0.00000000  0.73483053  1
  O  O141  1  0.50000000  0.00000000  0.06816386  1
  O  O142  1  0.50000000  0.00000000  0.40149719  1
  O  O143  1  0.50000000  0.00000000  0.73483053  1
  O  O144  1  0.03860227  0.10341216  0.21493312  1
  O  O145  1  0.03860227  0.10341216  0.54826645  1
  O  O146  1  0.03860227  0.10341216  0.88159978  1
  O  O147  1  0.53860227  0.10341216  0.21493312  1
  O  O148  1  0.53860227  0.10341216  0.54826645  1
  O  O149  1  0.53860227  0.10341216  0.88159978  1
  O  O150  1  0.03860227  -0.39658784  0.21493312  1
  O  O151  1  0.03860227  -0.39658784  0.54826645  1
  O  O152  1  0.03860227  -0.39658784  0.88159978  1
  O  O153  1  0.53860227  -0.39658784  0.21493312  1
  O  O154  1  0.53860227  -0.39658784  0.54826645  1
  O  O155  1  0.53860227  -0.39658784  0.88159978  1
  O  O156  1  0.46139773  0.39658784  0.21493312  1
  O  O157  1  0.46139773  0.39658784  0.54826645  1
  O  O158  1  0.46139773  0.39658784  0.88159978  1
  O  O159  1  0.96139773  0.39658784  0.21493312  1
  O  O160  1  0.96139773  0.39658784  0.54826645  1
  O  O161  1  0.96139773  0.39658784  0.88159978  1
  O  O162  1  0.46139773  -0.10341216  0.21493312  1
  O  O163  1  0.46139773  -0.10341216  0.54826645  1
  O  O164  1  0.46139773  -0.10341216  0.88159978  1
  O  O165  1  0.96139773  -0.10341216  0.21493312  1
  O  O166  1  0.96139773  -0.10341216  0.54826645  1
  O  O167  1  0.96139773  -0.10341216  0.88159978  1
  O  O168  1  0.39658784  0.03860227  0.21493312  1
  O  O169  1  0.39658784  0.03860227  0.54826645  1
  O  O170  1  0.39658784  0.03860227  0.88159978  1
  O  O171  1  0.89658784  0.03860227  0.21493312  1
  O  O172  1  0.89658784  0.03860227  0.54826645  1
  O  O173  1  0.89658784  0.03860227  0.88159978  1
  O  O174  1  0.39658784  -0.46139773  0.21493312  1
  O  O175  1  0.39658784  -0.46139773  0.54826645  1
  O  O176  1  0.39658784  -0.46139773  0.88159978  1
  O  O177  1  0.89658784  -0.46139773  0.21493312  1
  O  O178  1  0.89658784  -0.46139773  0.54826645  1
  O  O179  1  0.89658784  -0.46139773  0.88159978  1
  O  O180  1  0.10341216  0.46139773  0.21493312  1
  O  O181  1  0.10341216  0.46139773  0.54826645  1
  O  O182  1  0.10341216  0.46139773  0.88159978  1
  O  O183  1  0.60341216  0.46139773  0.21493312  1
  O  O184  1  0.60341216  0.46139773  0.54826645  1
  O  O185  1  0.60341216  0.46139773  0.88159978  1
  O  O186  1  0.10341216  -0.03860227  0.21493312  1
  O  O187  1  0.10341216  -0.03860227  0.54826645  1
  O  O188  1  0.10341216  -0.03860227  0.88159978  1
  O  O189  1  0.60341216  -0.03860227  0.21493312  1
  O  O190  1  0.60341216  -0.03860227  0.54826645  1
  O  O191  1  0.60341216  -0.03860227  0.88159978  1
  O  O192  1  0.35341216  0.28860227  0.21493312  1
  O  O193  1  0.35341216  0.28860227  0.54826645  1
  O  O194  1  0.35341216  0.28860227  0.88159978  1
  O  O195  1  0.85341216  0.28860227  0.21493312  1
  O  O196  1  0.85341216  0.28860227  0.54826645  1
  O  O197  1  0.85341216  0.28860227  0.88159978  1
  O  O198  1  0.35341216  -0.21139773  0.21493312  1
  O  O199  1  0.35341216  -0.21139773  0.54826645  1
  O  O200  1  0.35341216  -0.21139773  0.88159978  1
  O  O201  1  0.85341216  -0.21139773  0.21493312  1
  O  O202  1  0.85341216  -0.21139773  0.54826645  1
  O  O203  1  0.85341216  -0.21139773  0.88159978  1
  O  O204  1  0.28860227  0.14658784  0.21493312  1
  O  O205  1  0.28860227  0.14658784  0.54826645  1
  O  O206  1  0.28860227  0.14658784  0.88159978  1
  O  O207  1  0.78860227  0.14658784  0.21493312  1
  O  O208  1  0.78860227  0.14658784  0.54826645  1
  O  O209  1  0.78860227  0.14658784  0.88159978  1
  O  O210  1  0.28860227  -0.35341216  0.21493312  1
  O  O211  1  0.28860227  -0.35341216  0.54826645  1
  O  O212  1  0.28860227  -0.35341216  0.88159978  1
  O  O213  1  0.78860227  -0.35341216  0.21493312  1
  O  O214  1  0.78860227  -0.35341216  0.54826645  1
  O  O215  1  0.78860227  -0.35341216  0.88159978  1
  O  O216  1  0.21139773  0.35341216  0.21493312  1
  O  O217  1  0.21139773  0.35341216  0.54826645  1
  O  O218  1  0.21139773  0.35341216  0.88159978  1
  O  O219  1  0.71139773  0.35341216  0.21493312  1
  O  O220  1  0.71139773  0.35341216  0.54826645  1
  O  O221  1  0.71139773  0.35341216  0.88159978  1
  O  O222  1  0.21139773  -0.14658784  0.21493312  1
  O  O223  1  0.21139773  -0.14658784  0.54826645  1
  O  O224  1  0.21139773  -0.14658784  0.88159978  1
  O  O225  1  0.71139773  -0.14658784  0.21493312  1
  O  O226  1  0.71139773  -0.14658784  0.54826645  1
  O  O227  1  0.71139773  -0.14658784  0.88159978  1
  O  O228  1  0.14658784  0.21139773  0.21493312  1
  O  O229  1  0.14658784  0.21139773  0.54826645  1
  O  O230  1  0.14658784  0.21139773  0.88159978  1
  O  O231  1  0.64658784  0.21139773  0.21493312  1
  O  O232  1  0.64658784  0.21139773  0.54826645  1
  O  O233  1  0.64658784  0.21139773  0.88159978  1
  O  O234  1  0.14658784  -0.28860227  0.21493312  1
  O  O235  1  0.14658784  -0.28860227  0.54826645  1
  O  O236  1  0.14658784  -0.28860227  0.88159978  1
  O  O237  1  0.64658784  -0.28860227  0.21493312  1
  O  O238  1  0.64658784  -0.28860227  0.54826645  1
  O  O239  1  0.64658784  -0.28860227  0.88159978  1
  O  O240  1  0.00000000  0.25000000  0.20938367  1
  O  O241  1  0.00000000  0.25000000  0.54271701  1
  O  O242  1  0.00000000  0.25000000  0.87605034  1
  O  O243  1  0.50000000  0.25000000  0.20938367  1
  O  O244  1  0.50000000  0.25000000  0.54271701  1
  O  O245  1  0.50000000  0.25000000  0.87605034  1
  O  O246  1  0.00000000  -0.25000000  0.20938367  1
  O  O247  1  0.00000000  -0.25000000  0.54271701  1
  O  O248  1  0.00000000  -0.25000000  0.87605034  1
  O  O249  1  0.50000000  -0.25000000  0.20938367  1
  O  O250  1  0.50000000  -0.25000000  0.54271701  1
  O  O251  1  0.50000000  -0.25000000  0.87605034  1
  O  O252  1  0.25000000  0.50000000  0.20938367  1
  O  O253  1  0.25000000  0.50000000  0.54271701  1
  O  O254  1  0.25000000  0.50000000  0.87605034  1
  O  O255  1  0.75000000  0.50000000  0.20938367  1
  O  O256  1  0.75000000  0.50000000  0.54271701  1
  O  O257  1  0.75000000  0.50000000  0.87605034  1
  O  O258  1  0.25000000  0.00000000  0.20938367  1
  O  O259  1  0.25000000  0.00000000  0.54271701  1
  O  O260  1  0.25000000  0.00000000  0.87605034  1
  O  O261  1  0.75000000  0.00000000  0.20938367  1
  O  O262  1  0.75000000  0.00000000  0.54271701  1
  O  O263  1  0.75000000  0.00000000  0.87605034  1
  O  O264  1  0.06320202  0.18679798  0.06758254  1
  O  O265  1  0.06320202  0.18679798  0.40091587  1
  O  O266  1  0.06320202  0.18679798  0.73424920  1
  O  O267  1  0.56320202  0.18679798  0.06758254  1
  O  O268  1  0.56320202  0.18679798  0.40091587  1
  O  O269  1  0.56320202  0.18679798  0.73424920  1
  O  O270  1  0.06320202  -0.31320202  0.06758254  1
  O  O271  1  0.06320202  -0.31320202  0.40091587  1
  O  O272  1  0.06320202  -0.31320202  0.73424920  1
  O  O273  1  0.56320202  -0.31320202  0.06758254  1
  O  O274  1  0.56320202  -0.31320202  0.40091587  1
  O  O275  1  0.56320202  -0.31320202  0.73424920  1
  O  O276  1  0.18679798  0.43679798  0.06758254  1
  O  O277  1  0.18679798  0.43679798  0.40091587  1
  O  O278  1  0.18679798  0.43679798  0.73424920  1
  O  O279  1  0.68679798  0.43679798  0.06758254  1
  O  O280  1  0.68679798  0.43679798  0.40091587  1
  O  O281  1  0.68679798  0.43679798  0.73424920  1
  O  O282  1  0.18679798  -0.06320202  0.06758254  1
  O  O283  1  0.18679798  -0.06320202  0.40091587  1
  O  O284  1  0.18679798  -0.06320202  0.73424920  1
  O  O285  1  0.68679798  -0.06320202  0.06758254  1
  O  O286  1  0.68679798  -0.06320202  0.40091587  1
  O  O287  1  0.68679798  -0.06320202  0.73424920  1
  O  O288  1  0.31320202  0.06320202  0.06758254  1
  O  O289  1  0.31320202  0.06320202  0.40091587  1
  O  O290  1  0.31320202  0.06320202  0.73424920  1
  O  O291  1  0.81320202  0.06320202  0.06758254  1
  O  O292  1  0.81320202  0.06320202  0.40091587  1
  O  O293  1  0.81320202  0.06320202  0.73424920  1
  O  O294  1  0.31320202  -0.43679798  0.06758254  1
  O  O295  1  0.31320202  -0.43679798  0.40091587  1
  O  O296  1  0.31320202  -0.43679798  0.73424920  1
  O  O297  1  0.81320202  -0.43679798  0.06758254  1
  O  O298  1  0.81320202  -0.43679798  0.40091587  1
  O  O299  1  0.81320202  -0.43679798  0.73424920  1
  O  O300  1  0.43679798  0.31320202  0.06758254  1
  O  O301  1  0.43679798  0.31320202  0.40091587  1
  O  O302  1  0.43679798  0.31320202  0.73424920  1
  O  O303  1  0.93679798  0.31320202  0.06758254  1
  O  O304  1  0.93679798  0.31320202  0.40091587  1
  O  O305  1  0.93679798  0.31320202  0.73424920  1
  O  O306  1  0.43679798  -0.18679798  0.06758254  1
  O  O307  1  0.43679798  -0.18679798  0.40091587  1
  O  O308  1  0.43679798  -0.18679798  0.73424920  1
  O  O309  1  0.93679798  -0.18679798  0.06758254  1
  O  O310  1  0.93679798  -0.18679798  0.40091587  1
  O  O311  1  0.93679798  -0.18679798  0.73424920  1
