# generated using pymatgen
data_Y3SbO7
_symmetry_space_group_name_H-M   'P 1'
_cell_length_a   14.77141224
_cell_length_b   10.45501515
_cell_length_c   14.89166118
_cell_angle_alpha   90.00000000
_cell_angle_beta   90.00000000
_cell_angle_gamma   90.00000000
_symmetry_Int_Tables_number   1
_chemical_formula_structural   Y3SbO7
_chemical_formula_sum   'Y48 Sb16 O112'
_cell_volume   2299.79873813
_cell_formula_units_Z   16
loop_
 _symmetry_equiv_pos_site_id
 _symmetry_equiv_pos_as_xyz
  1  'x, y, z'
loop_
 _atom_site_type_symbol
 _atom_site_label
 _atom_site_symmetry_multiplicity
 _atom_site_fract_x
 _atom_site_fract_y
 _atom_site_fract_z
 _atom_site_occupancy
  Y  Y0  1  0.25000000  0.00000000  0.00000000  1
  Y  Y1  1  0.25000000  0.00000000  0.50000000  1
  Y  Y2  1  0.75000000  0.00000000  0.00000000  1
  Y  Y3  1  0.75000000  0.00000000  0.50000000  1
  Y  Y4  1  0.50000000  0.50000000  0.00000000  1
  Y  Y5  1  0.50000000  0.50000000  0.50000000  1
  Y  Y6  1  1.00000000  0.50000000  0.00000000  1
  Y  Y7  1  1.00000000  0.50000000  0.50000000  1
  Y  Y8  1  0.25000000  0.00000000  0.25000000  1
  Y  Y9  1  0.25000000  0.00000000  0.75000000  1
  Y  Y10  1  0.75000000  0.00000000  0.25000000  1
  Y  Y11  1  0.75000000  0.00000000  0.75000000  1
  Y  Y12  1  0.50000000  0.50000000  0.25000000  1
  Y  Y13  1  0.50000000  0.50000000  0.75000000  1
  Y  Y14  1  1.00000000  0.50000000  0.25000000  1
  Y  Y15  1  1.00000000  0.50000000  0.75000000  1
  Y  Y16  1  0.36704431  -0.26582604  0.37500000  1
  Y  Y17  1  0.36704431  -0.26582604  0.87500000  1
  Y  Y18  1  0.86704431  -0.26582604  0.37500000  1
  Y  Y19  1  0.86704431  -0.26582604  0.87500000  1
  Y  Y20  1  0.61704431  0.23417396  0.37500000  1
  Y  Y21  1  0.61704431  0.23417396  0.87500000  1
  Y  Y22  1  1.11704431  0.23417396  0.37500000  1
  Y  Y23  1  1.11704431  0.23417396  0.87500000  1
  Y  Y24  1  0.13295569  0.26582604  0.12500000  1
  Y  Y25  1  0.13295569  0.26582604  0.62500000  1
  Y  Y26  1  0.63295569  0.26582604  0.12500000  1
  Y  Y27  1  0.63295569  0.26582604  0.62500000  1
  Y  Y28  1  0.38295569  0.76582604  0.12500000  1
  Y  Y29  1  0.38295569  0.76582604  0.62500000  1
  Y  Y30  1  0.88295569  0.76582604  0.12500000  1
  Y  Y31  1  0.88295569  0.76582604  0.62500000  1
  Y  Y32  1  0.13295569  -0.26582604  0.37500000  1
  Y  Y33  1  0.13295569  -0.26582604  0.87500000  1
  Y  Y34  1  0.63295569  -0.26582604  0.37500000  1
  Y  Y35  1  0.63295569  -0.26582604  0.87500000  1
  Y  Y36  1  0.38295569  0.23417396  0.37500000  1
  Y  Y37  1  0.38295569  0.23417396  0.87500000  1
  Y  Y38  1  0.88295569  0.23417396  0.37500000  1
  Y  Y39  1  0.88295569  0.23417396  0.87500000  1
  Y  Y40  1  0.36704431  0.26582604  0.12500000  1
  Y  Y41  1  0.36704431  0.26582604  0.62500000  1
  Y  Y42  1  0.86704431  0.26582604  0.12500000  1
  Y  Y43  1  0.86704431  0.26582604  0.62500000  1
  Y  Y44  1  0.61704431  0.76582604  0.12500000  1
  Y  Y45  1  0.61704431  0.76582604  0.62500000  1
  Y  Y46  1  1.11704431  0.76582604  0.12500000  1
  Y  Y47  1  1.11704431  0.76582604  0.62500000  1
  Sb  Sb48  1  0.00000000  0.00000000  0.00000000  1
  Sb  Sb49  1  0.00000000  0.00000000  0.50000000  1
  Sb  Sb50  1  0.50000000  0.00000000  0.00000000  1
  Sb  Sb51  1  0.50000000  0.00000000  0.50000000  1
  Sb  Sb52  1  0.25000000  0.50000000  0.00000000  1
  Sb  Sb53  1  0.25000000  0.50000000  0.50000000  1
  Sb  Sb54  1  0.75000000  0.50000000  0.00000000  1
  Sb  Sb55  1  0.75000000  0.50000000  0.50000000  1
  Sb  Sb56  1  0.00000000  0.00000000  0.25000000  1
  Sb  Sb57  1  0.00000000  0.00000000  0.75000000  1
  Sb  Sb58  1  0.50000000  0.00000000  0.25000000  1
  Sb  Sb59  1  0.50000000  0.00000000  0.75000000  1
  Sb  Sb60  1  0.25000000  0.50000000  0.25000000  1
  Sb  Sb61  1  0.25000000  0.50000000  0.75000000  1
  Sb  Sb62  1  0.75000000  0.50000000  0.25000000  1
  Sb  Sb63  1  0.75000000  0.50000000  0.75000000  1
  O  O64  1  0.25000000  -0.13703153  0.37500000  1
  O  O65  1  0.25000000  -0.13703153  0.87500000  1
  O  O66  1  0.75000000  -0.13703153  0.37500000  1
  O  O67  1  0.75000000  -0.13703153  0.87500000  1
  O  O68  1  0.50000000  0.36296847  0.37500000  1
  O  O69  1  0.50000000  0.36296847  0.87500000  1
  O  O70  1  1.00000000  0.36296847  0.37500000  1
  O  O71  1  1.00000000  0.36296847  0.87500000  1
  O  O72  1  0.25000000  0.13703153  0.12500000  1
  O  O73  1  0.25000000  0.13703153  0.62500000  1
  O  O74  1  0.75000000  0.13703153  0.12500000  1
  O  O75  1  0.75000000  0.13703153  0.62500000  1
  O  O76  1  0.50000000  0.63703153  0.12500000  1
  O  O77  1  0.50000000  0.63703153  0.62500000  1
  O  O78  1  1.00000000  0.63703153  0.12500000  1
  O  O79  1  1.00000000  0.63703153  0.62500000  1
  O  O80  1  0.25000000  0.12986866  0.37500000  1
  O  O81  1  0.25000000  0.12986866  0.87500000  1
  O  O82  1  0.75000000  0.12986866  0.37500000  1
  O  O83  1  0.75000000  0.12986866  0.87500000  1
  O  O84  1  0.50000000  0.62986866  0.37500000  1
  O  O85  1  0.50000000  0.62986866  0.87500000  1
  O  O86  1  1.00000000  0.62986866  0.37500000  1
  O  O87  1  1.00000000  0.62986866  0.87500000  1
  O  O88  1  0.25000000  -0.12986866  0.12500000  1
  O  O89  1  0.25000000  -0.12986866  0.62500000  1
  O  O90  1  0.75000000  -0.12986866  0.12500000  1
  O  O91  1  0.75000000  -0.12986866  0.62500000  1
  O  O92  1  0.50000000  0.37013134  0.12500000  1
  O  O93  1  0.50000000  0.37013134  0.62500000  1
  O  O94  1  1.00000000  0.37013134  0.12500000  1
  O  O95  1  1.00000000  0.37013134  0.62500000  1
  O  O96  1  0.25000000  -0.42896295  0.37500000  1
  O  O97  1  0.25000000  -0.42896295  0.87500000  1
  O  O98  1  0.75000000  -0.42896295  0.37500000  1
  O  O99  1  0.75000000  -0.42896295  0.87500000  1
  O  O100  1  0.50000000  0.07103705  0.37500000  1
  O  O101  1  0.50000000  0.07103705  0.87500000  1
  O  O102  1  1.00000000  0.07103705  0.37500000  1
  O  O103  1  1.00000000  0.07103705  0.87500000  1
  O  O104  1  0.25000000  0.42896295  0.12500000  1
  O  O105  1  0.25000000  0.42896295  0.62500000  1
  O  O106  1  0.75000000  0.42896295  0.12500000  1
  O  O107  1  0.75000000  0.42896295  0.62500000  1
  O  O108  1  0.50000000  0.92896295  0.12500000  1
  O  O109  1  0.50000000  0.92896295  0.62500000  1
  O  O110  1  1.00000000  0.92896295  0.12500000  1
  O  O111  1  1.00000000  0.92896295  0.62500000  1
  O  O112  1  0.09929517  0.12507374  0.01491262  1
  O  O113  1  0.09929517  0.12507374  0.51491262  1
  O  O114  1  0.59929517  0.12507374  0.01491262  1
  O  O115  1  0.59929517  0.12507374  0.51491262  1
  O  O116  1  0.34929517  0.62507374  0.01491262  1
  O  O117  1  0.34929517  0.62507374  0.51491262  1
  O  O118  1  0.84929517  0.62507374  0.01491262  1
  O  O119  1  0.84929517  0.62507374  0.51491262  1
  O  O120  1  0.40070483  -0.12507374  0.26491262  1
  O  O121  1  0.40070483  -0.12507374  0.76491262  1
  O  O122  1  0.90070483  -0.12507374  0.26491262  1
  O  O123  1  0.90070483  -0.12507374  0.76491262  1
  O  O124  1  0.65070483  0.37492626  0.26491262  1
  O  O125  1  0.65070483  0.37492626  0.76491262  1
  O  O126  1  1.15070483  0.37492626  0.26491262  1
  O  O127  1  1.15070483  0.37492626  0.76491262  1
  O  O128  1  0.40070483  0.12507374  0.23508738  1
  O  O129  1  0.40070483  0.12507374  0.73508738  1
  O  O130  1  0.90070483  0.12507374  0.23508738  1
  O  O131  1  0.90070483  0.12507374  0.73508738  1
  O  O132  1  0.65070483  0.62507374  0.23508738  1
  O  O133  1  0.65070483  0.62507374  0.73508738  1
  O  O134  1  1.15070483  0.62507374  0.23508738  1
  O  O135  1  1.15070483  0.62507374  0.73508738  1
  O  O136  1  0.09929517  -0.12507374  0.48508738  1
  O  O137  1  0.09929517  -0.12507374  0.98508738  1
  O  O138  1  0.59929517  -0.12507374  0.48508738  1
  O  O139  1  0.59929517  -0.12507374  0.98508738  1
  O  O140  1  0.34929517  0.37492626  0.48508738  1
  O  O141  1  0.34929517  0.37492626  0.98508738  1
  O  O142  1  0.84929517  0.37492626  0.48508738  1
  O  O143  1  0.84929517  0.37492626  0.98508738  1
  O  O144  1  0.40070483  -0.12507374  0.48508738  1
  O  O145  1  0.40070483  -0.12507374  0.98508738  1
  O  O146  1  0.90070483  -0.12507374  0.48508738  1
  O  O147  1  0.90070483  -0.12507374  0.98508738  1
  O  O148  1  0.65070483  0.37492626  0.48508738  1
  O  O149  1  0.65070483  0.37492626  0.98508738  1
  O  O150  1  1.15070483  0.37492626  0.48508738  1
  O  O151  1  1.15070483  0.37492626  0.98508738  1
  O  O152  1  0.09929517  0.12507374  0.23508738  1
  O  O153  1  0.09929517  0.12507374  0.73508738  1
  O  O154  1  0.59929517  0.12507374  0.23508738  1
  O  O155  1  0.59929517  0.12507374  0.73508738  1
  O  O156  1  0.34929517  0.62507374  0.23508738  1
  O  O157  1  0.34929517  0.62507374  0.73508738  1
  O  O158  1  0.84929517  0.62507374  0.23508738  1
  O  O159  1  0.84929517  0.62507374  0.73508738  1
  O  O160  1  0.09929517  -0.12507374  0.26491262  1
  O  O161  1  0.09929517  -0.12507374  0.76491262  1
  O  O162  1  0.59929517  -0.12507374  0.26491262  1
  O  O163  1  0.59929517  -0.12507374  0.76491262  1
  O  O164  1  0.34929517  0.37492626  0.26491262  1
  O  O165  1  0.34929517  0.37492626  0.76491262  1
  O  O166  1  0.84929517  0.37492626  0.26491262  1
  O  O167  1  0.84929517  0.37492626  0.76491262  1
  O  O168  1  0.40070483  0.12507374  0.01491262  1
  O  O169  1  0.40070483  0.12507374  0.51491262  1
  O  O170  1  0.90070483  0.12507374  0.01491262  1
  O  O171  1  0.90070483  0.12507374  0.51491262  1
  O  O172  1  0.65070483  0.62507374  0.01491262  1
  O  O173  1  0.65070483  0.62507374  0.51491262  1
  O  O174  1  1.15070483  0.62507374  0.01491262  1
  O  O175  1  1.15070483  0.62507374  0.51491262  1
