# generated using pymatgen
data_MgSn(BO3)2
_symmetry_space_group_name_H-M   'P 1'
_cell_length_a   14.18812856
_cell_length_b   14.18812856
_cell_length_c   14.90000227
_cell_angle_alpha   90.00000000
_cell_angle_beta   90.00000000
_cell_angle_gamma   120.00000000
_symmetry_Int_Tables_number   1
_chemical_formula_structural   MgSn(BO3)2
_chemical_formula_sum   'Mg27 Sn27 B54 O162'
_cell_volume   2597.56961823
_cell_formula_units_Z   27
loop_
 _symmetry_equiv_pos_site_id
 _symmetry_equiv_pos_as_xyz
  1  'x, y, z'
loop_
 _atom_site_type_symbol
 _atom_site_label
 _atom_site_symmetry_multiplicity
 _atom_site_fract_x
 _atom_site_fract_y
 _atom_site_fract_z
 _atom_site_occupancy
  Mg  Mg0  1  -0.00000000  -0.00000000  -0.00000000  1
  Mg  Mg1  1  -0.00000000  0.33333333  -0.00000000  1
  Mg  Mg2  1  -0.00000000  0.66666667  -0.00000000  1
  Mg  Mg3  1  0.33333333  -0.00000000  -0.00000000  1
  Mg  Mg4  1  0.33333333  0.33333333  -0.00000000  1
  Mg  Mg5  1  0.33333333  0.66666667  -0.00000000  1
  Mg  Mg6  1  0.66666667  -0.00000000  -0.00000000  1
  Mg  Mg7  1  0.66666667  0.33333333  -0.00000000  1
  Mg  Mg8  1  0.66666667  0.66666667  -0.00000000  1
  Mg  Mg9  1  0.22222222  0.11111111  0.33333333  1
  Mg  Mg10  1  0.22222222  0.44444444  0.33333333  1
  Mg  Mg11  1  0.22222222  0.77777778  0.33333333  1
  Mg  Mg12  1  0.55555556  0.11111111  0.33333333  1
  Mg  Mg13  1  0.55555556  0.44444444  0.33333333  1
  Mg  Mg14  1  0.55555556  0.77777778  0.33333333  1
  Mg  Mg15  1  0.88888889  0.11111111  0.33333333  1
  Mg  Mg16  1  0.88888889  0.44444444  0.33333333  1
  Mg  Mg17  1  0.88888889  0.77777778  0.33333333  1
  Mg  Mg18  1  0.11111111  0.22222222  0.66666667  1
  Mg  Mg19  1  0.11111111  0.55555556  0.66666667  1
  Mg  Mg20  1  0.11111111  0.88888889  0.66666667  1
  Mg  Mg21  1  0.44444444  0.22222222  0.66666667  1
  Mg  Mg22  1  0.44444444  0.55555556  0.66666667  1
  Mg  Mg23  1  0.44444444  0.88888889  0.66666667  1
  Mg  Mg24  1  0.77777778  0.22222222  0.66666667  1
  Mg  Mg25  1  0.77777778  0.55555556  0.66666667  1
  Mg  Mg26  1  0.77777778  0.88888889  0.66666667  1
  Sn  Sn27  1  -0.00000000  -0.00000000  0.50000000  1
  Sn  Sn28  1  -0.00000000  0.33333333  0.50000000  1
  Sn  Sn29  1  -0.00000000  0.66666667  0.50000000  1
  Sn  Sn30  1  0.33333333  -0.00000000  0.50000000  1
  Sn  Sn31  1  0.33333333  0.33333333  0.50000000  1
  Sn  Sn32  1  0.33333333  0.66666667  0.50000000  1
  Sn  Sn33  1  0.66666667  -0.00000000  0.50000000  1
  Sn  Sn34  1  0.66666667  0.33333333  0.50000000  1
  Sn  Sn35  1  0.66666667  0.66666667  0.50000000  1
  Sn  Sn36  1  0.22222222  0.11111111  0.83333333  1
  Sn  Sn37  1  0.22222222  0.44444444  0.83333333  1
  Sn  Sn38  1  0.22222222  0.77777778  0.83333333  1
  Sn  Sn39  1  0.55555556  0.11111111  0.83333333  1
  Sn  Sn40  1  0.55555556  0.44444444  0.83333333  1
  Sn  Sn41  1  0.55555556  0.77777778  0.83333333  1
  Sn  Sn42  1  0.88888889  0.11111111  0.83333333  1
  Sn  Sn43  1  0.88888889  0.44444444  0.83333333  1
  Sn  Sn44  1  0.88888889  0.77777778  0.83333333  1
  Sn  Sn45  1  0.11111111  0.22222222  1.16666667  1
  Sn  Sn46  1  0.11111111  0.55555556  1.16666667  1
  Sn  Sn47  1  0.11111111  0.88888889  1.16666667  1
  Sn  Sn48  1  0.44444444  0.22222222  1.16666667  1
  Sn  Sn49  1  0.44444444  0.55555556  1.16666667  1
  Sn  Sn50  1  0.44444444  0.88888889  1.16666667  1
  Sn  Sn51  1  0.77777778  0.22222222  1.16666667  1
  Sn  Sn52  1  0.77777778  0.55555556  1.16666667  1
  Sn  Sn53  1  0.77777778  0.88888889  1.16666667  1
  B  B54  1  -0.00000000  -0.00000000  0.24790062  1
  B  B55  1  -0.00000000  0.33333333  0.24790062  1
  B  B56  1  -0.00000000  0.66666667  0.24790062  1
  B  B57  1  0.33333333  -0.00000000  0.24790062  1
  B  B58  1  0.33333333  0.33333333  0.24790062  1
  B  B59  1  0.33333333  0.66666667  0.24790062  1
  B  B60  1  0.66666667  -0.00000000  0.24790062  1
  B  B61  1  0.66666667  0.33333333  0.24790062  1
  B  B62  1  0.66666667  0.66666667  0.24790062  1
  B  B63  1  0.22222222  0.11111111  0.58123395  1
  B  B64  1  0.22222222  0.44444444  0.58123395  1
  B  B65  1  0.22222222  0.77777778  0.58123395  1
  B  B66  1  0.55555556  0.11111111  0.58123395  1
  B  B67  1  0.55555556  0.44444444  0.58123395  1
  B  B68  1  0.55555556  0.77777778  0.58123395  1
  B  B69  1  0.88888889  0.11111111  0.58123395  1
  B  B70  1  0.88888889  0.44444444  0.58123395  1
  B  B71  1  0.88888889  0.77777778  0.58123395  1
  B  B72  1  0.11111111  0.22222222  0.91456729  1
  B  B73  1  0.11111111  0.55555556  0.91456729  1
  B  B74  1  0.11111111  0.88888889  0.91456729  1
  B  B75  1  0.44444444  0.22222222  0.91456729  1
  B  B76  1  0.44444444  0.55555556  0.91456729  1
  B  B77  1  0.44444444  0.88888889  0.91456729  1
  B  B78  1  0.77777778  0.22222222  0.91456729  1
  B  B79  1  0.77777778  0.55555556  0.91456729  1
  B  B80  1  0.77777778  0.88888889  0.91456729  1
  B  B81  1  -0.00000000  -0.00000000  0.75209938  1
  B  B82  1  -0.00000000  0.33333333  0.75209938  1
  B  B83  1  -0.00000000  0.66666667  0.75209938  1
  B  B84  1  0.33333333  -0.00000000  0.75209938  1
  B  B85  1  0.33333333  0.33333333  0.75209938  1
  B  B86  1  0.33333333  0.66666667  0.75209938  1
  B  B87  1  0.66666667  -0.00000000  0.75209938  1
  B  B88  1  0.66666667  0.33333333  0.75209938  1
  B  B89  1  0.66666667  0.66666667  0.75209938  1
  B  B90  1  0.22222222  0.11111111  1.08543271  1
  B  B91  1  0.22222222  0.44444444  1.08543271  1
  B  B92  1  0.22222222  0.77777778  1.08543271  1
  B  B93  1  0.55555556  0.11111111  1.08543271  1
  B  B94  1  0.55555556  0.44444444  1.08543271  1
  B  B95  1  0.55555556  0.77777778  1.08543271  1
  B  B96  1  0.88888889  0.11111111  1.08543271  1
  B  B97  1  0.88888889  0.44444444  1.08543271  1
  B  B98  1  0.88888889  0.77777778  1.08543271  1
  B  B99  1  0.11111111  0.22222222  1.41876605  1
  B  B100  1  0.11111111  0.55555556  1.41876605  1
  B  B101  1  0.11111111  0.88888889  1.41876605  1
  B  B102  1  0.44444444  0.22222222  1.41876605  1
  B  B103  1  0.44444444  0.55555556  1.41876605  1
  B  B104  1  0.44444444  0.88888889  1.41876605  1
  B  B105  1  0.77777778  0.22222222  1.41876605  1
  B  B106  1  0.77777778  0.55555556  1.41876605  1
  B  B107  1  0.77777778  0.88888889  1.41876605  1
  O  O108  1  -0.11099623  -0.12471482  0.58199312  1
  O  O109  1  -0.11099623  0.20861852  0.58199312  1
  O  O110  1  -0.11099623  0.54195185  0.58199312  1
  O  O111  1  0.22233710  -0.12471482  0.58199312  1
  O  O112  1  0.22233710  0.20861852  0.58199312  1
  O  O113  1  0.22233710  0.54195185  0.58199312  1
  O  O114  1  0.55567044  -0.12471482  0.58199312  1
  O  O115  1  0.55567044  0.20861852  0.58199312  1
  O  O116  1  0.55567044  0.54195185  0.58199312  1
  O  O117  1  0.11122599  -0.01360371  0.91532645  1
  O  O118  1  0.11122599  0.31972963  0.91532645  1
  O  O119  1  0.11122599  0.65306296  0.91532645  1
  O  O120  1  0.44455933  -0.01360371  0.91532645  1
  O  O121  1  0.44455933  0.31972963  0.91532645  1
  O  O122  1  0.44455933  0.65306296  0.91532645  1
  O  O123  1  0.77789266  -0.01360371  0.91532645  1
  O  O124  1  0.77789266  0.31972963  0.91532645  1
  O  O125  1  0.77789266  0.65306296  0.91532645  1
  O  O126  1  0.00011488  0.09750740  1.24865979  1
  O  O127  1  0.00011488  0.43084074  1.24865979  1
  O  O128  1  0.00011488  0.76417407  1.24865979  1
  O  O129  1  0.33344821  0.09750740  1.24865979  1
  O  O130  1  0.33344821  0.43084074  1.24865979  1
  O  O131  1  0.33344821  0.76417407  1.24865979  1
  O  O132  1  0.66678155  0.09750740  1.24865979  1
  O  O133  1  0.66678155  0.43084074  1.24865979  1
  O  O134  1  0.66678155  0.76417407  1.24865979  1
  O  O135  1  0.12471482  0.01371859  0.58199312  1
  O  O136  1  0.12471482  0.34705192  0.58199312  1
  O  O137  1  0.12471482  0.68038525  0.58199312  1
  O  O138  1  0.45804815  0.01371859  0.58199312  1
  O  O139  1  0.45804815  0.34705192  0.58199312  1
  O  O140  1  0.45804815  0.68038525  0.58199312  1
  O  O141  1  0.79138148  0.01371859  0.58199312  1
  O  O142  1  0.79138148  0.34705192  0.58199312  1
  O  O143  1  0.79138148  0.68038525  0.58199312  1
  O  O144  1  0.34693704  0.12482970  0.91532645  1
  O  O145  1  0.34693704  0.45816303  0.91532645  1
  O  O146  1  0.34693704  0.79149637  0.91532645  1
  O  O147  1  0.68027037  0.12482970  0.91532645  1
  O  O148  1  0.68027037  0.45816303  0.91532645  1
  O  O149  1  0.68027037  0.79149637  0.91532645  1
  O  O150  1  1.01360371  0.12482970  0.91532645  1
  O  O151  1  1.01360371  0.45816303  0.91532645  1
  O  O152  1  1.01360371  0.79149637  0.91532645  1
  O  O153  1  0.23582593  0.23594081  1.24865979  1
  O  O154  1  0.23582593  0.56927414  1.24865979  1
  O  O155  1  0.23582593  0.90260748  1.24865979  1
  O  O156  1  0.56915926  0.23594081  1.24865979  1
  O  O157  1  0.56915926  0.56927414  1.24865979  1
  O  O158  1  0.56915926  0.90260748  1.24865979  1
  O  O159  1  0.90249260  0.23594081  1.24865979  1
  O  O160  1  0.90249260  0.56927414  1.24865979  1
  O  O161  1  0.90249260  0.90260748  1.24865979  1
  O  O162  1  0.01371859  -0.11099623  0.41800688  1
  O  O163  1  0.01371859  0.22233710  0.41800688  1
  O  O164  1  0.01371859  0.55567044  0.41800688  1
  O  O165  1  0.34705192  -0.11099623  0.41800688  1
  O  O166  1  0.34705192  0.22233710  0.41800688  1
  O  O167  1  0.34705192  0.55567044  0.41800688  1
  O  O168  1  0.68038525  -0.11099623  0.41800688  1
  O  O169  1  0.68038525  0.22233710  0.41800688  1
  O  O170  1  0.68038525  0.55567044  0.41800688  1
  O  O171  1  0.23594081  0.00011488  0.75134021  1
  O  O172  1  0.23594081  0.33344821  0.75134021  1
  O  O173  1  0.23594081  0.66678155  0.75134021  1
  O  O174  1  0.56927414  0.00011488  0.75134021  1
  O  O175  1  0.56927414  0.33344821  0.75134021  1
  O  O176  1  0.56927414  0.66678155  0.75134021  1
  O  O177  1  0.90260748  0.00011488  0.75134021  1
  O  O178  1  0.90260748  0.33344821  0.75134021  1
  O  O179  1  0.90260748  0.66678155  0.75134021  1
  O  O180  1  0.12482970  0.11122599  1.08467355  1
  O  O181  1  0.12482970  0.44455933  1.08467355  1
  O  O182  1  0.12482970  0.77789266  1.08467355  1
  O  O183  1  0.45816303  0.11122599  1.08467355  1
  O  O184  1  0.45816303  0.44455933  1.08467355  1
  O  O185  1  0.45816303  0.77789266  1.08467355  1
  O  O186  1  0.79149637  0.11122599  1.08467355  1
  O  O187  1  0.79149637  0.44455933  1.08467355  1
  O  O188  1  0.79149637  0.77789266  1.08467355  1
  O  O189  1  0.11099623  0.12471482  0.41800688  1
  O  O190  1  0.11099623  0.45804815  0.41800688  1
  O  O191  1  0.11099623  0.79138148  0.41800688  1
  O  O192  1  0.44432956  0.12471482  0.41800688  1
  O  O193  1  0.44432956  0.45804815  0.41800688  1
  O  O194  1  0.44432956  0.79138148  0.41800688  1
  O  O195  1  0.77766290  0.12471482  0.41800688  1
  O  O196  1  0.77766290  0.45804815  0.41800688  1
  O  O197  1  0.77766290  0.79138148  0.41800688  1
  O  O198  1  0.33321845  0.23582593  0.75134021  1
  O  O199  1  0.33321845  0.56915926  0.75134021  1
  O  O200  1  0.33321845  0.90249260  0.75134021  1
  O  O201  1  0.66655179  0.23582593  0.75134021  1
  O  O202  1  0.66655179  0.56915926  0.75134021  1
  O  O203  1  0.66655179  0.90249260  0.75134021  1
  O  O204  1  0.99988512  0.23582593  0.75134021  1
  O  O205  1  0.99988512  0.56915926  0.75134021  1
  O  O206  1  0.99988512  0.90249260  0.75134021  1
  O  O207  1  0.22210734  0.34693704  1.08467355  1
  O  O208  1  0.22210734  0.68027037  1.08467355  1
  O  O209  1  0.22210734  1.01360371  1.08467355  1
  O  O210  1  0.55544067  0.34693704  1.08467355  1
  O  O211  1  0.55544067  0.68027037  1.08467355  1
  O  O212  1  0.55544067  1.01360371  1.08467355  1
  O  O213  1  0.88877401  0.34693704  1.08467355  1
  O  O214  1  0.88877401  0.68027037  1.08467355  1
  O  O215  1  0.88877401  1.01360371  1.08467355  1
  O  O216  1  -0.12471482  -0.01371859  0.41800688  1
  O  O217  1  -0.12471482  0.31961475  0.41800688  1
  O  O218  1  -0.12471482  0.65294808  0.41800688  1
  O  O219  1  0.20861852  -0.01371859  0.41800688  1
  O  O220  1  0.20861852  0.31961475  0.41800688  1
  O  O221  1  0.20861852  0.65294808  0.41800688  1
  O  O222  1  0.54195185  -0.01371859  0.41800688  1
  O  O223  1  0.54195185  0.31961475  0.41800688  1
  O  O224  1  0.54195185  0.65294808  0.41800688  1
  O  O225  1  0.09750740  0.09739252  0.75134021  1
  O  O226  1  0.09750740  0.43072586  0.75134021  1
  O  O227  1  0.09750740  0.76405919  0.75134021  1
  O  O228  1  0.43084074  0.09739252  0.75134021  1
  O  O229  1  0.43084074  0.43072586  0.75134021  1
  O  O230  1  0.43084074  0.76405919  0.75134021  1
  O  O231  1  0.76417407  0.09739252  0.75134021  1
  O  O232  1  0.76417407  0.43072586  0.75134021  1
  O  O233  1  0.76417407  0.76405919  0.75134021  1
  O  O234  1  -0.01360371  0.20850363  1.08467355  1
  O  O235  1  -0.01360371  0.54183697  1.08467355  1
  O  O236  1  -0.01360371  0.87517030  1.08467355  1
  O  O237  1  0.31972963  0.20850363  1.08467355  1
  O  O238  1  0.31972963  0.54183697  1.08467355  1
  O  O239  1  0.31972963  0.87517030  1.08467355  1
  O  O240  1  0.65306296  0.20850363  1.08467355  1
  O  O241  1  0.65306296  0.54183697  1.08467355  1
  O  O242  1  0.65306296  0.87517030  1.08467355  1
  O  O243  1  -0.01371859  0.11099623  0.58199312  1
  O  O244  1  -0.01371859  0.44432956  0.58199312  1
  O  O245  1  -0.01371859  0.77766290  0.58199312  1
  O  O246  1  0.31961475  0.11099623  0.58199312  1
  O  O247  1  0.31961475  0.44432956  0.58199312  1
  O  O248  1  0.31961475  0.77766290  0.58199312  1
  O  O249  1  0.65294808  0.11099623  0.58199312  1
  O  O250  1  0.65294808  0.44432956  0.58199312  1
  O  O251  1  0.65294808  0.77766290  0.58199312  1
  O  O252  1  0.20850363  0.22210734  0.91532645  1
  O  O253  1  0.20850363  0.55544067  0.91532645  1
  O  O254  1  0.20850363  0.88877401  0.91532645  1
  O  O255  1  0.54183697  0.22210734  0.91532645  1
  O  O256  1  0.54183697  0.55544067  0.91532645  1
  O  O257  1  0.54183697  0.88877401  0.91532645  1
  O  O258  1  0.87517030  0.22210734  0.91532645  1
  O  O259  1  0.87517030  0.55544067  0.91532645  1
  O  O260  1  0.87517030  0.88877401  0.91532645  1
  O  O261  1  0.09739252  0.33321845  1.24865979  1
  O  O262  1  0.09739252  0.66655179  1.24865979  1
  O  O263  1  0.09739252  0.99988512  1.24865979  1
  O  O264  1  0.43072586  0.33321845  1.24865979  1
  O  O265  1  0.43072586  0.66655179  1.24865979  1
  O  O266  1  0.43072586  0.99988512  1.24865979  1
  O  O267  1  0.76405919  0.33321845  1.24865979  1
  O  O268  1  0.76405919  0.66655179  1.24865979  1
  O  O269  1  0.76405919  0.99988512  1.24865979  1
