# generated using pymatgen
data_Rb3InO3
_symmetry_space_group_name_H-M   'P 1'
_cell_length_a   15.41482998
_cell_length_b   14.20960470
_cell_length_c   11.38309117
_cell_angle_alpha   90.00000000
_cell_angle_beta   93.96835922
_cell_angle_gamma   90.00000000
_symmetry_Int_Tables_number   1
_chemical_formula_structural   Rb3InO3
_chemical_formula_sum   'Rb48 In16 O48'
_cell_volume   2487.35884040
_cell_formula_units_Z   16
loop_
 _symmetry_equiv_pos_site_id
 _symmetry_equiv_pos_as_xyz
  1  'x, y, z'
loop_
 _atom_site_type_symbol
 _atom_site_label
 _atom_site_symmetry_multiplicity
 _atom_site_fract_x
 _atom_site_fract_y
 _atom_site_fract_z
 _atom_site_occupancy
  Rb  Rb0  1  0.32072523  0.41332645  0.57531212  1
  Rb  Rb1  1  0.32072523  0.91332645  0.57531212  1
  Rb  Rb2  1  0.82072523  0.41332645  0.57531212  1
  Rb  Rb3  1  0.82072523  0.91332645  0.57531212  1
  Rb  Rb4  1  0.02924894  0.06342148  0.65620726  1
  Rb  Rb5  1  0.02924894  0.56342148  0.65620726  1
  Rb  Rb6  1  0.52924894  0.06342148  0.65620726  1
  Rb  Rb7  1  0.52924894  0.56342148  0.65620726  1
  Rb  Rb8  1  0.31483106  0.15220317  0.69123787  1
  Rb  Rb9  1  0.31483106  0.65220317  0.69123787  1
  Rb  Rb10  1  0.81483106  0.15220317  0.69123787  1
  Rb  Rb11  1  0.81483106  0.65220317  0.69123787  1
  Rb  Rb12  1  0.18516894  0.40220317  0.80876213  1
  Rb  Rb13  1  0.18516894  0.90220317  0.80876213  1
  Rb  Rb14  1  0.68516894  0.40220317  0.80876213  1
  Rb  Rb15  1  0.68516894  0.90220317  0.80876213  1
  Rb  Rb16  1  0.47075106  0.31342148  0.84379274  1
  Rb  Rb17  1  0.47075106  0.81342148  0.84379274  1
  Rb  Rb18  1  0.97075106  0.31342148  0.84379274  1
  Rb  Rb19  1  0.97075106  0.81342148  0.84379274  1
  Rb  Rb20  1  0.17927477  0.16332645  0.92468788  1
  Rb  Rb21  1  0.17927477  0.66332645  0.92468788  1
  Rb  Rb22  1  0.67927477  0.16332645  0.92468788  1
  Rb  Rb23  1  0.67927477  0.66332645  0.92468788  1
  Rb  Rb24  1  0.32072523  0.33667355  0.07531212  1
  Rb  Rb25  1  0.32072523  0.83667355  0.07531212  1
  Rb  Rb26  1  0.82072523  0.33667355  0.07531212  1
  Rb  Rb27  1  0.82072523  0.83667355  0.07531212  1
  Rb  Rb28  1  0.02924894  0.18657852  0.15620726  1
  Rb  Rb29  1  0.02924894  0.68657852  0.15620726  1
  Rb  Rb30  1  0.52924894  0.18657852  0.15620726  1
  Rb  Rb31  1  0.52924894  0.68657852  0.15620726  1
  Rb  Rb32  1  0.31483106  0.09779683  0.19123787  1
  Rb  Rb33  1  0.31483106  0.59779683  0.19123787  1
  Rb  Rb34  1  0.81483106  0.09779683  0.19123787  1
  Rb  Rb35  1  0.81483106  0.59779683  0.19123787  1
  Rb  Rb36  1  0.18516894  0.34779683  0.30876213  1
  Rb  Rb37  1  0.18516894  0.84779683  0.30876213  1
  Rb  Rb38  1  0.68516894  0.34779683  0.30876213  1
  Rb  Rb39  1  0.68516894  0.84779683  0.30876213  1
  Rb  Rb40  1  0.47075106  0.43657852  0.34379274  1
  Rb  Rb41  1  0.47075106  0.93657852  0.34379274  1
  Rb  Rb42  1  0.97075106  0.43657852  0.34379274  1
  Rb  Rb43  1  0.97075106  0.93657852  0.34379274  1
  Rb  Rb44  1  0.17927477  0.08667355  0.42468788  1
  Rb  Rb45  1  0.17927477  0.58667355  0.42468788  1
  Rb  Rb46  1  0.67927477  0.08667355  0.42468788  1
  Rb  Rb47  1  0.67927477  0.58667355  0.42468788  1
  In  In48  1  0.08054260  0.29468134  0.56845634  1
  In  In49  1  0.08054260  0.79468134  0.56845634  1
  In  In50  1  0.58054260  0.29468134  0.56845634  1
  In  In51  1  0.58054260  0.79468134  0.56845634  1
  In  In52  1  0.41945740  0.04468134  0.93154366  1
  In  In53  1  0.41945740  0.54468134  0.93154366  1
  In  In54  1  0.91945740  0.04468134  0.93154366  1
  In  In55  1  0.91945740  0.54468134  0.93154366  1
  In  In56  1  0.08054260  0.45531866  0.06845634  1
  In  In57  1  0.08054260  0.95531866  0.06845634  1
  In  In58  1  0.58054260  0.45531866  0.06845634  1
  In  In59  1  0.58054260  0.95531866  0.06845634  1
  In  In60  1  0.41945740  0.20531866  0.43154366  1
  In  In61  1  0.41945740  0.70531866  0.43154366  1
  In  In62  1  0.91945740  0.20531866  0.43154366  1
  In  In63  1  0.91945740  0.70531866  0.43154366  1
  O  O64  1  0.12755100  0.42949121  0.54087253  1
  O  O65  1  0.12755100  0.92949121  0.54087253  1
  O  O66  1  0.62755100  0.42949121  0.54087253  1
  O  O67  1  0.62755100  0.92949121  0.54087253  1
  O  O68  1  0.44489743  0.27255536  0.60071257  1
  O  O69  1  0.44489743  0.77255536  0.60071257  1
  O  O70  1  0.94489743  0.27255536  0.60071257  1
  O  O71  1  0.94489743  0.77255536  0.60071257  1
  O  O72  1  0.15250442  0.21937482  0.69684297  1
  O  O73  1  0.15250442  0.71937482  0.69684297  1
  O  O74  1  0.65250442  0.21937482  0.69684297  1
  O  O75  1  0.65250442  0.71937482  0.69684297  1
  O  O76  1  0.34749558  0.46937482  0.80315703  1
  O  O77  1  0.34749558  0.96937482  0.80315703  1
  O  O78  1  0.84749558  0.46937482  0.80315703  1
  O  O79  1  0.84749558  0.96937482  0.80315703  1
  O  O80  1  0.05510257  0.02255536  0.89928743  1
  O  O81  1  0.05510257  0.52255536  0.89928743  1
  O  O82  1  0.55510257  0.02255536  0.89928743  1
  O  O83  1  0.55510257  0.52255536  0.89928743  1
  O  O84  1  0.37244900  0.17949121  0.95912747  1
  O  O85  1  0.37244900  0.67949121  0.95912747  1
  O  O86  1  0.87244900  0.17949121  0.95912747  1
  O  O87  1  0.87244900  0.67949121  0.95912747  1
  O  O88  1  0.12755100  0.32050879  0.04087253  1
  O  O89  1  0.12755100  0.82050879  0.04087253  1
  O  O90  1  0.62755100  0.32050879  0.04087253  1
  O  O91  1  0.62755100  0.82050879  0.04087253  1
  O  O92  1  0.44489743  0.47744464  0.10071257  1
  O  O93  1  0.44489743  0.97744464  0.10071257  1
  O  O94  1  0.94489743  0.47744464  0.10071257  1
  O  O95  1  0.94489743  0.97744464  0.10071257  1
  O  O96  1  0.15250442  0.03062518  0.19684297  1
  O  O97  1  0.15250442  0.53062518  0.19684297  1
  O  O98  1  0.65250442  0.03062518  0.19684297  1
  O  O99  1  0.65250442  0.53062518  0.19684297  1
  O  O100  1  0.34749558  0.28062518  0.30315703  1
  O  O101  1  0.34749558  0.78062518  0.30315703  1
  O  O102  1  0.84749558  0.28062518  0.30315703  1
  O  O103  1  0.84749558  0.78062518  0.30315703  1
  O  O104  1  0.05510257  0.22744464  0.39928743  1
  O  O105  1  0.05510257  0.72744464  0.39928743  1
  O  O106  1  0.55510257  0.22744464  0.39928743  1
  O  O107  1  0.55510257  0.72744464  0.39928743  1
  O  O108  1  0.37244900  0.07050879  0.45912747  1
  O  O109  1  0.37244900  0.57050879  0.45912747  1
  O  O110  1  0.87244900  0.07050879  0.45912747  1
  O  O111  1  0.87244900  0.57050879  0.45912747  1
