# generated using pymatgen
data_Cd2SnO4
_symmetry_space_group_name_H-M   'P 1'
_cell_length_a   11.18004695
_cell_length_b   9.95064222
_cell_length_c   9.61876476
_cell_angle_alpha   90.00000000
_cell_angle_beta   90.00000000
_cell_angle_gamma   90.00000000
_symmetry_Int_Tables_number   1
_chemical_formula_structural   Cd2SnO4
_chemical_formula_sum   'Cd24 Sn12 O48'
_cell_volume   1070.07456797
_cell_formula_units_Z   12
loop_
 _symmetry_equiv_pos_site_id
 _symmetry_equiv_pos_as_xyz
  1  'x, y, z'
loop_
 _atom_site_type_symbol
 _atom_site_label
 _atom_site_symmetry_multiplicity
 _atom_site_fract_x
 _atom_site_fract_y
 _atom_site_fract_z
 _atom_site_occupancy
  Cd  Cd0  1  0.03041832  0.32362916  0.16666667  1
  Cd  Cd1  1  0.03041832  0.32362916  0.50000000  1
  Cd  Cd2  1  0.03041832  0.32362916  0.83333333  1
  Cd  Cd3  1  0.53041832  0.32362916  0.16666667  1
  Cd  Cd4  1  0.53041832  0.32362916  0.50000000  1
  Cd  Cd5  1  0.53041832  0.32362916  0.83333333  1
  Cd  Cd6  1  0.46958168  0.67637084  0.16666667  1
  Cd  Cd7  1  0.46958168  0.67637084  0.50000000  1
  Cd  Cd8  1  0.46958168  0.67637084  0.83333333  1
  Cd  Cd9  1  0.96958168  0.67637084  0.16666667  1
  Cd  Cd10  1  0.96958168  0.67637084  0.50000000  1
  Cd  Cd11  1  0.96958168  0.67637084  0.83333333  1
  Cd  Cd12  1  0.21958168  0.82362916  0.16666667  1
  Cd  Cd13  1  0.21958168  0.82362916  0.50000000  1
  Cd  Cd14  1  0.21958168  0.82362916  0.83333333  1
  Cd  Cd15  1  0.71958168  0.82362916  0.16666667  1
  Cd  Cd16  1  0.71958168  0.82362916  0.50000000  1
  Cd  Cd17  1  0.71958168  0.82362916  0.83333333  1
  Cd  Cd18  1  0.28041832  0.17637084  0.16666667  1
  Cd  Cd19  1  0.28041832  0.17637084  0.50000000  1
  Cd  Cd20  1  0.28041832  0.17637084  0.83333333  1
  Cd  Cd21  1  0.78041832  0.17637084  0.16666667  1
  Cd  Cd22  1  0.78041832  0.17637084  0.50000000  1
  Cd  Cd23  1  0.78041832  0.17637084  0.83333333  1
  Sn  Sn24  1  0.00000000  0.00000000  0.00000000  1
  Sn  Sn25  1  0.00000000  0.00000000  0.33333333  1
  Sn  Sn26  1  0.00000000  0.00000000  0.66666667  1
  Sn  Sn27  1  0.50000000  0.00000000  0.00000000  1
  Sn  Sn28  1  0.50000000  0.00000000  0.33333333  1
  Sn  Sn29  1  0.50000000  0.00000000  0.66666667  1
  Sn  Sn30  1  0.25000000  0.50000000  0.00000000  1
  Sn  Sn31  1  0.25000000  0.50000000  0.33333333  1
  Sn  Sn32  1  0.25000000  0.50000000  0.66666667  1
  Sn  Sn33  1  0.75000000  0.50000000  0.00000000  1
  Sn  Sn34  1  0.75000000  0.50000000  0.33333333  1
  Sn  Sn35  1  0.75000000  0.50000000  0.66666667  1
  O  O36  1  0.06720200  0.80670486  0.00000000  1
  O  O37  1  0.06720200  0.80670486  0.33333333  1
  O  O38  1  0.06720200  0.80670486  0.66666667  1
  O  O39  1  0.56720200  0.80670486  0.00000000  1
  O  O40  1  0.56720200  0.80670486  0.33333333  1
  O  O41  1  0.56720200  0.80670486  0.66666667  1
  O  O42  1  0.43279800  0.19329514  0.00000000  1
  O  O43  1  0.43279800  0.19329514  0.33333333  1
  O  O44  1  0.43279800  0.19329514  0.66666667  1
  O  O45  1  0.93279800  0.19329514  0.00000000  1
  O  O46  1  0.93279800  0.19329514  0.33333333  1
  O  O47  1  0.93279800  0.19329514  0.66666667  1
  O  O48  1  0.31720200  0.69329514  0.00000000  1
  O  O49  1  0.31720200  0.69329514  0.33333333  1
  O  O50  1  0.31720200  0.69329514  0.66666667  1
  O  O51  1  0.81720200  0.69329514  0.00000000  1
  O  O52  1  0.81720200  0.69329514  0.33333333  1
  O  O53  1  0.81720200  0.69329514  0.66666667  1
  O  O54  1  0.18279800  0.30670486  0.00000000  1
  O  O55  1  0.18279800  0.30670486  0.33333333  1
  O  O56  1  0.18279800  0.30670486  0.66666667  1
  O  O57  1  0.68279800  0.30670486  0.00000000  1
  O  O58  1  0.68279800  0.30670486  0.33333333  1
  O  O59  1  0.68279800  0.30670486  0.66666667  1
  O  O60  1  0.13165619  0.53902596  0.16666667  1
  O  O61  1  0.13165619  0.53902596  0.50000000  1
  O  O62  1  0.13165619  0.53902596  0.83333333  1
  O  O63  1  0.63165619  0.53902596  0.16666667  1
  O  O64  1  0.63165619  0.53902596  0.50000000  1
  O  O65  1  0.63165619  0.53902596  0.83333333  1
  O  O66  1  0.36834381  0.46097404  0.16666667  1
  O  O67  1  0.36834381  0.46097404  0.50000000  1
  O  O68  1  0.36834381  0.46097404  0.83333333  1
  O  O69  1  0.86834381  0.46097404  0.16666667  1
  O  O70  1  0.86834381  0.46097404  0.50000000  1
  O  O71  1  0.86834381  0.46097404  0.83333333  1
  O  O72  1  0.11834381  0.03902596  0.16666667  1
  O  O73  1  0.11834381  0.03902596  0.50000000  1
  O  O74  1  0.11834381  0.03902596  0.83333333  1
  O  O75  1  0.61834381  0.03902596  0.16666667  1
  O  O76  1  0.61834381  0.03902596  0.50000000  1
  O  O77  1  0.61834381  0.03902596  0.83333333  1
  O  O78  1  0.38165619  0.96097404  0.16666667  1
  O  O79  1  0.38165619  0.96097404  0.50000000  1
  O  O80  1  0.38165619  0.96097404  0.83333333  1
  O  O81  1  0.88165619  0.96097404  0.16666667  1
  O  O82  1  0.88165619  0.96097404  0.50000000  1
  O  O83  1  0.88165619  0.96097404  0.83333333  1
