# generated using pymatgen
data_Sr2TiO4
_symmetry_space_group_name_H-M   'P 1'
_cell_length_a   11.67057160
_cell_length_b   11.67057160
_cell_length_c   12.51062341
_cell_angle_alpha   90.00000000
_cell_angle_beta   90.00000000
_cell_angle_gamma   90.00000000
_symmetry_Int_Tables_number   1
_chemical_formula_structural   Sr2TiO4
_chemical_formula_sum   'Sr36 Ti18 O72'
_cell_volume   1703.97495088
_cell_formula_units_Z   18
loop_
 _symmetry_equiv_pos_site_id
 _symmetry_equiv_pos_as_xyz
  1  'x, y, z'
loop_
 _atom_site_type_symbol
 _atom_site_label
 _atom_site_symmetry_multiplicity
 _atom_site_fract_x
 _atom_site_fract_y
 _atom_site_fract_z
 _atom_site_occupancy
  Sr  Sr0  1  -0.00000000  0.00000000  0.64483364  1
  Sr  Sr1  1  -0.00000000  0.33333333  0.64483364  1
  Sr  Sr2  1  -0.00000000  0.66666667  0.64483364  1
  Sr  Sr3  1  0.33333333  0.00000000  0.64483364  1
  Sr  Sr4  1  0.33333333  0.33333333  0.64483364  1
  Sr  Sr5  1  0.33333333  0.66666667  0.64483364  1
  Sr  Sr6  1  0.66666667  0.00000000  0.64483364  1
  Sr  Sr7  1  0.66666667  0.33333333  0.64483364  1
  Sr  Sr8  1  0.66666667  0.66666667  0.64483364  1
  Sr  Sr9  1  0.16666667  0.16666667  1.14483364  1
  Sr  Sr10  1  0.16666667  0.50000000  1.14483364  1
  Sr  Sr11  1  0.16666667  0.83333333  1.14483364  1
  Sr  Sr12  1  0.50000000  0.16666667  1.14483364  1
  Sr  Sr13  1  0.50000000  0.50000000  1.14483364  1
  Sr  Sr14  1  0.50000000  0.83333333  1.14483364  1
  Sr  Sr15  1  0.83333333  0.16666667  1.14483364  1
  Sr  Sr16  1  0.83333333  0.50000000  1.14483364  1
  Sr  Sr17  1  0.83333333  0.83333333  1.14483364  1
  Sr  Sr18  1  0.00000000  -0.00000000  0.35516636  1
  Sr  Sr19  1  0.00000000  0.33333333  0.35516636  1
  Sr  Sr20  1  0.00000000  0.66666667  0.35516636  1
  Sr  Sr21  1  0.33333333  -0.00000000  0.35516636  1
  Sr  Sr22  1  0.33333333  0.33333333  0.35516636  1
  Sr  Sr23  1  0.33333333  0.66666667  0.35516636  1
  Sr  Sr24  1  0.66666667  -0.00000000  0.35516636  1
  Sr  Sr25  1  0.66666667  0.33333333  0.35516636  1
  Sr  Sr26  1  0.66666667  0.66666667  0.35516636  1
  Sr  Sr27  1  0.16666667  0.16666667  0.85516636  1
  Sr  Sr28  1  0.16666667  0.50000000  0.85516636  1
  Sr  Sr29  1  0.16666667  0.83333333  0.85516636  1
  Sr  Sr30  1  0.50000000  0.16666667  0.85516636  1
  Sr  Sr31  1  0.50000000  0.50000000  0.85516636  1
  Sr  Sr32  1  0.50000000  0.83333333  0.85516636  1
  Sr  Sr33  1  0.83333333  0.16666667  0.85516636  1
  Sr  Sr34  1  0.83333333  0.50000000  0.85516636  1
  Sr  Sr35  1  0.83333333  0.83333333  0.85516636  1
  Ti  Ti36  1  0.00000000  0.00000000  0.00000000  1
  Ti  Ti37  1  0.00000000  0.33333333  0.00000000  1
  Ti  Ti38  1  0.00000000  0.66666667  0.00000000  1
  Ti  Ti39  1  0.33333333  0.00000000  0.00000000  1
  Ti  Ti40  1  0.33333333  0.33333333  0.00000000  1
  Ti  Ti41  1  0.33333333  0.66666667  0.00000000  1
  Ti  Ti42  1  0.66666667  0.00000000  0.00000000  1
  Ti  Ti43  1  0.66666667  0.33333333  0.00000000  1
  Ti  Ti44  1  0.66666667  0.66666667  0.00000000  1
  Ti  Ti45  1  0.16666667  0.16666667  0.50000000  1
  Ti  Ti46  1  0.16666667  0.50000000  0.50000000  1
  Ti  Ti47  1  0.16666667  0.83333333  0.50000000  1
  Ti  Ti48  1  0.50000000  0.16666667  0.50000000  1
  Ti  Ti49  1  0.50000000  0.50000000  0.50000000  1
  Ti  Ti50  1  0.50000000  0.83333333  0.50000000  1
  Ti  Ti51  1  0.83333333  0.16666667  0.50000000  1
  Ti  Ti52  1  0.83333333  0.50000000  0.50000000  1
  Ti  Ti53  1  0.83333333  0.83333333  0.50000000  1
  O  O54  1  -0.00000000  0.00000000  0.84095740  1
  O  O55  1  -0.00000000  0.33333333  0.84095740  1
  O  O56  1  -0.00000000  0.66666667  0.84095740  1
  O  O57  1  0.33333333  0.00000000  0.84095740  1
  O  O58  1  0.33333333  0.33333333  0.84095740  1
  O  O59  1  0.33333333  0.66666667  0.84095740  1
  O  O60  1  0.66666667  0.00000000  0.84095740  1
  O  O61  1  0.66666667  0.33333333  0.84095740  1
  O  O62  1  0.66666667  0.66666667  0.84095740  1
  O  O63  1  0.16666667  0.16666667  1.34095740  1
  O  O64  1  0.16666667  0.50000000  1.34095740  1
  O  O65  1  0.16666667  0.83333333  1.34095740  1
  O  O66  1  0.50000000  0.16666667  1.34095740  1
  O  O67  1  0.50000000  0.50000000  1.34095740  1
  O  O68  1  0.50000000  0.83333333  1.34095740  1
  O  O69  1  0.83333333  0.16666667  1.34095740  1
  O  O70  1  0.83333333  0.50000000  1.34095740  1
  O  O71  1  0.83333333  0.83333333  1.34095740  1
  O  O72  1  -0.00000000  0.00000000  0.15904260  1
  O  O73  1  -0.00000000  0.33333333  0.15904260  1
  O  O74  1  -0.00000000  0.66666667  0.15904260  1
  O  O75  1  0.33333333  0.00000000  0.15904260  1
  O  O76  1  0.33333333  0.33333333  0.15904260  1
  O  O77  1  0.33333333  0.66666667  0.15904260  1
  O  O78  1  0.66666667  0.00000000  0.15904260  1
  O  O79  1  0.66666667  0.33333333  0.15904260  1
  O  O80  1  0.66666667  0.66666667  0.15904260  1
  O  O81  1  0.16666667  0.16666667  0.65904260  1
  O  O82  1  0.16666667  0.50000000  0.65904260  1
  O  O83  1  0.16666667  0.83333333  0.65904260  1
  O  O84  1  0.50000000  0.16666667  0.65904260  1
  O  O85  1  0.50000000  0.50000000  0.65904260  1
  O  O86  1  0.50000000  0.83333333  0.65904260  1
  O  O87  1  0.83333333  0.16666667  0.65904260  1
  O  O88  1  0.83333333  0.50000000  0.65904260  1
  O  O89  1  0.83333333  0.83333333  0.65904260  1
  O  O90  1  0.00000000  0.16666667  0.00000000  1
  O  O91  1  0.00000000  0.50000000  0.00000000  1
  O  O92  1  0.00000000  0.83333333  0.00000000  1
  O  O93  1  0.33333333  0.16666667  0.00000000  1
  O  O94  1  0.33333333  0.50000000  0.00000000  1
  O  O95  1  0.33333333  0.83333333  0.00000000  1
  O  O96  1  0.66666667  0.16666667  0.00000000  1
  O  O97  1  0.66666667  0.50000000  0.00000000  1
  O  O98  1  0.66666667  0.83333333  0.00000000  1
  O  O99  1  0.16666667  0.33333333  0.50000000  1
  O  O100  1  0.16666667  0.66666667  0.50000000  1
  O  O101  1  0.16666667  1.00000000  0.50000000  1
  O  O102  1  0.50000000  0.33333333  0.50000000  1
  O  O103  1  0.50000000  0.66666667  0.50000000  1
  O  O104  1  0.50000000  1.00000000  0.50000000  1
  O  O105  1  0.83333333  0.33333333  0.50000000  1
  O  O106  1  0.83333333  0.66666667  0.50000000  1
  O  O107  1  0.83333333  1.00000000  0.50000000  1
  O  O108  1  0.16666667  0.00000000  0.00000000  1
  O  O109  1  0.16666667  0.33333333  0.00000000  1
  O  O110  1  0.16666667  0.66666667  0.00000000  1
  O  O111  1  0.50000000  0.00000000  0.00000000  1
  O  O112  1  0.50000000  0.33333333  0.00000000  1
  O  O113  1  0.50000000  0.66666667  0.00000000  1
  O  O114  1  0.83333333  0.00000000  0.00000000  1
  O  O115  1  0.83333333  0.33333333  0.00000000  1
  O  O116  1  0.83333333  0.66666667  0.00000000  1
  O  O117  1  0.33333333  0.16666667  0.50000000  1
  O  O118  1  0.33333333  0.50000000  0.50000000  1
  O  O119  1  0.33333333  0.83333333  0.50000000  1
  O  O120  1  0.66666667  0.16666667  0.50000000  1
  O  O121  1  0.66666667  0.50000000  0.50000000  1
  O  O122  1  0.66666667  0.83333333  0.50000000  1
  O  O123  1  1.00000000  0.16666667  0.50000000  1
  O  O124  1  1.00000000  0.50000000  0.50000000  1
  O  O125  1  1.00000000  0.83333333  0.50000000  1
