# generated using pymatgen
data_LaSbO4
_symmetry_space_group_name_H-M   'P 1'
_cell_length_a   16.15968730
_cell_length_b   15.27841290
_cell_length_c   13.60986303
_cell_angle_alpha   90.00000000
_cell_angle_beta   109.31853976
_cell_angle_gamma   90.00000000
_symmetry_Int_Tables_number   1
_chemical_formula_structural   LaSbO4
_chemical_formula_sum   'La36 Sb36 O144'
_cell_volume   3170.99912950
_cell_formula_units_Z   36
loop_
 _symmetry_equiv_pos_site_id
 _symmetry_equiv_pos_as_xyz
  1  'x, y, z'
loop_
 _atom_site_type_symbol
 _atom_site_label
 _atom_site_symmetry_multiplicity
 _atom_site_fract_x
 _atom_site_fract_y
 _atom_site_fract_z
 _atom_site_occupancy
  La  La0  1  0.11502386  0.26710207  0.33569920  1
  La  La1  1  0.11502386  0.60043540  0.33569920  1
  La  La2  1  0.11502386  0.93376874  0.33569920  1
  La  La3  1  0.44835719  0.26710207  0.33569920  1
  La  La4  1  0.44835719  0.60043540  0.33569920  1
  La  La5  1  0.44835719  0.93376874  0.33569920  1
  La  La6  1  0.78169053  0.26710207  0.33569920  1
  La  La7  1  0.78169053  0.60043540  0.33569920  1
  La  La8  1  0.78169053  0.93376874  0.33569920  1
  La  La9  1  0.11502386  0.23289793  0.83569920  1
  La  La10  1  0.11502386  0.56623126  0.83569920  1
  La  La11  1  0.11502386  0.89956460  0.83569920  1
  La  La12  1  0.44835719  0.23289793  0.83569920  1
  La  La13  1  0.44835719  0.56623126  0.83569920  1
  La  La14  1  0.44835719  0.89956460  0.83569920  1
  La  La15  1  0.78169053  0.23289793  0.83569920  1
  La  La16  1  0.78169053  0.56623126  0.83569920  1
  La  La17  1  0.78169053  0.89956460  0.83569920  1
  La  La18  1  0.21830947  0.06623126  0.66430080  1
  La  La19  1  0.21830947  0.39956460  0.66430080  1
  La  La20  1  0.21830947  0.73289793  0.66430080  1
  La  La21  1  0.55164281  0.06623126  0.66430080  1
  La  La22  1  0.55164281  0.39956460  0.66430080  1
  La  La23  1  0.55164281  0.73289793  0.66430080  1
  La  La24  1  0.88497614  0.06623126  0.66430080  1
  La  La25  1  0.88497614  0.39956460  0.66430080  1
  La  La26  1  0.88497614  0.73289793  0.66430080  1
  La  La27  1  0.21830947  0.10043540  0.16430080  1
  La  La28  1  0.21830947  0.43376874  0.16430080  1
  La  La29  1  0.21830947  0.76710207  0.16430080  1
  La  La30  1  0.55164281  0.10043540  0.16430080  1
  La  La31  1  0.55164281  0.43376874  0.16430080  1
  La  La32  1  0.55164281  0.76710207  0.16430080  1
  La  La33  1  0.88497614  0.10043540  0.16430080  1
  La  La34  1  0.88497614  0.43376874  0.16430080  1
  La  La35  1  0.88497614  0.76710207  0.16430080  1
  Sb  Sb36  1  0.02720103  0.25047444  0.06985768  1
  Sb  Sb37  1  0.02720103  0.58380777  0.06985768  1
  Sb  Sb38  1  0.02720103  0.91714110  0.06985768  1
  Sb  Sb39  1  0.36053437  0.25047444  0.06985768  1
  Sb  Sb40  1  0.36053437  0.58380777  0.06985768  1
  Sb  Sb41  1  0.36053437  0.91714110  0.06985768  1
  Sb  Sb42  1  0.69386770  0.25047444  0.06985768  1
  Sb  Sb43  1  0.69386770  0.58380777  0.06985768  1
  Sb  Sb44  1  0.69386770  0.91714110  0.06985768  1
  Sb  Sb45  1  0.02720103  0.24952556  0.56985768  1
  Sb  Sb46  1  0.02720103  0.58285890  0.56985768  1
  Sb  Sb47  1  0.02720103  0.91619223  0.56985768  1
  Sb  Sb48  1  0.36053437  0.24952556  0.56985768  1
  Sb  Sb49  1  0.36053437  0.58285890  0.56985768  1
  Sb  Sb50  1  0.36053437  0.91619223  0.56985768  1
  Sb  Sb51  1  0.69386770  0.24952556  0.56985768  1
  Sb  Sb52  1  0.69386770  0.58285890  0.56985768  1
  Sb  Sb53  1  0.69386770  0.91619223  0.56985768  1
  Sb  Sb54  1  0.30613230  0.08285890  0.93014232  1
  Sb  Sb55  1  0.30613230  0.41619223  0.93014232  1
  Sb  Sb56  1  0.30613230  0.74952556  0.93014232  1
  Sb  Sb57  1  0.63946563  0.08285890  0.93014232  1
  Sb  Sb58  1  0.63946563  0.41619223  0.93014232  1
  Sb  Sb59  1  0.63946563  0.74952556  0.93014232  1
  Sb  Sb60  1  0.97279897  0.08285890  0.93014232  1
  Sb  Sb61  1  0.97279897  0.41619223  0.93014232  1
  Sb  Sb62  1  0.97279897  0.74952556  0.93014232  1
  Sb  Sb63  1  0.30613230  0.08380777  0.43014232  1
  Sb  Sb64  1  0.30613230  0.41714110  0.43014232  1
  Sb  Sb65  1  0.30613230  0.75047444  0.43014232  1
  Sb  Sb66  1  0.63946563  0.08380777  0.43014232  1
  Sb  Sb67  1  0.63946563  0.41714110  0.43014232  1
  Sb  Sb68  1  0.63946563  0.75047444  0.43014232  1
  Sb  Sb69  1  0.97279897  0.08380777  0.43014232  1
  Sb  Sb70  1  0.97279897  0.41714110  0.43014232  1
  Sb  Sb71  1  0.97279897  0.75047444  0.43014232  1
  O  O72  1  0.08245445  0.14518638  0.02740474  1
  O  O73  1  0.08245445  0.47851971  0.02740474  1
  O  O74  1  0.08245445  0.81185304  0.02740474  1
  O  O75  1  0.41578778  0.14518638  0.02740474  1
  O  O76  1  0.41578778  0.47851971  0.02740474  1
  O  O77  1  0.41578778  0.81185304  0.02740474  1
  O  O78  1  0.74912111  0.14518638  0.02740474  1
  O  O79  1  0.74912111  0.47851971  0.02740474  1
  O  O80  1  0.74912111  0.81185304  0.02740474  1
  O  O81  1  0.08245445  0.02148029  0.52740474  1
  O  O82  1  0.08245445  0.35481362  0.52740474  1
  O  O83  1  0.08245445  0.68814696  0.52740474  1
  O  O84  1  0.41578778  0.02148029  0.52740474  1
  O  O85  1  0.41578778  0.35481362  0.52740474  1
  O  O86  1  0.41578778  0.68814696  0.52740474  1
  O  O87  1  0.74912111  0.02148029  0.52740474  1
  O  O88  1  0.74912111  0.35481362  0.52740474  1
  O  O89  1  0.74912111  0.68814696  0.52740474  1
  O  O90  1  0.25087889  0.18814696  0.97259526  1
  O  O91  1  0.25087889  0.52148029  0.97259526  1
  O  O92  1  0.25087889  0.85481362  0.97259526  1
  O  O93  1  0.58421222  0.18814696  0.97259526  1
  O  O94  1  0.58421222  0.52148029  0.97259526  1
  O  O95  1  0.58421222  0.85481362  0.97259526  1
  O  O96  1  0.91754555  0.18814696  0.97259526  1
  O  O97  1  0.91754555  0.52148029  0.97259526  1
  O  O98  1  0.91754555  0.85481362  0.97259526  1
  O  O99  1  0.25087889  0.31185304  0.47259526  1
  O  O100  1  0.25087889  0.64518638  0.47259526  1
  O  O101  1  0.25087889  0.97851971  0.47259526  1
  O  O102  1  0.58421222  0.31185304  0.47259526  1
  O  O103  1  0.58421222  0.64518638  0.47259526  1
  O  O104  1  0.58421222  0.97851971  0.47259526  1
  O  O105  1  0.91754555  0.31185304  0.47259526  1
  O  O106  1  0.91754555  0.64518638  0.47259526  1
  O  O107  1  0.91754555  0.97851971  0.47259526  1
  O  O108  1  0.00203253  0.20053804  0.18836405  1
  O  O109  1  0.00203253  0.53387137  0.18836405  1
  O  O110  1  0.00203253  0.86720470  0.18836405  1
  O  O111  1  0.33536586  0.20053804  0.18836405  1
  O  O112  1  0.33536586  0.53387137  0.18836405  1
  O  O113  1  0.33536586  0.86720470  0.18836405  1
  O  O114  1  0.66869919  0.20053804  0.18836405  1
  O  O115  1  0.66869919  0.53387137  0.18836405  1
  O  O116  1  0.66869919  0.86720470  0.18836405  1
  O  O117  1  0.00203253  0.29946196  0.68836405  1
  O  O118  1  0.00203253  0.63279530  0.68836405  1
  O  O119  1  0.00203253  0.96612863  0.68836405  1
  O  O120  1  0.33536586  0.29946196  0.68836405  1
  O  O121  1  0.33536586  0.63279530  0.68836405  1
  O  O122  1  0.33536586  0.96612863  0.68836405  1
  O  O123  1  0.66869919  0.29946196  0.68836405  1
  O  O124  1  0.66869919  0.63279530  0.68836405  1
  O  O125  1  0.66869919  0.96612863  0.68836405  1
  O  O126  1  0.33130081  0.13279530  0.81163595  1
  O  O127  1  0.33130081  0.46612863  0.81163595  1
  O  O128  1  0.33130081  0.79946196  0.81163595  1
  O  O129  1  0.66463414  0.13279530  0.81163595  1
  O  O130  1  0.66463414  0.46612863  0.81163595  1
  O  O131  1  0.66463414  0.79946196  0.81163595  1
  O  O132  1  0.99796747  0.13279530  0.81163595  1
  O  O133  1  0.99796747  0.46612863  0.81163595  1
  O  O134  1  0.99796747  0.79946196  0.81163595  1
  O  O135  1  0.33130081  0.03387137  0.31163595  1
  O  O136  1  0.33130081  0.36720470  0.31163595  1
  O  O137  1  0.33130081  0.70053804  0.31163595  1
  O  O138  1  0.66463414  0.03387137  0.31163595  1
  O  O139  1  0.66463414  0.36720470  0.31163595  1
  O  O140  1  0.66463414  0.70053804  0.31163595  1
  O  O141  1  0.99796747  0.03387137  0.31163595  1
  O  O142  1  0.99796747  0.36720470  0.31163595  1
  O  O143  1  0.99796747  0.70053804  0.31163595  1
  O  O144  1  0.28679205  0.02415205  0.05582847  1
  O  O145  1  0.28679205  0.35748538  0.05582847  1
  O  O146  1  0.28679205  0.69081871  0.05582847  1
  O  O147  1  0.62012539  0.02415205  0.05582847  1
  O  O148  1  0.62012539  0.35748538  0.05582847  1
  O  O149  1  0.62012539  0.69081871  0.05582847  1
  O  O150  1  0.95345872  0.02415205  0.05582847  1
  O  O151  1  0.95345872  0.35748538  0.05582847  1
  O  O152  1  0.95345872  0.69081871  0.05582847  1
  O  O153  1  0.28679205  0.14251462  0.55582847  1
  O  O154  1  0.28679205  0.47584795  0.55582847  1
  O  O155  1  0.28679205  0.80918129  0.55582847  1
  O  O156  1  0.62012539  0.14251462  0.55582847  1
  O  O157  1  0.62012539  0.47584795  0.55582847  1
  O  O158  1  0.62012539  0.80918129  0.55582847  1
  O  O159  1  0.95345872  0.14251462  0.55582847  1
  O  O160  1  0.95345872  0.47584795  0.55582847  1
  O  O161  1  0.95345872  0.80918129  0.55582847  1
  O  O162  1  0.04654128  0.30918129  0.94417153  1
  O  O163  1  0.04654128  0.64251462  0.94417153  1
  O  O164  1  0.04654128  0.97584795  0.94417153  1
  O  O165  1  0.37987461  0.30918129  0.94417153  1
  O  O166  1  0.37987461  0.64251462  0.94417153  1
  O  O167  1  0.37987461  0.97584795  0.94417153  1
  O  O168  1  0.71320795  0.30918129  0.94417153  1
  O  O169  1  0.71320795  0.64251462  0.94417153  1
  O  O170  1  0.71320795  0.97584795  0.94417153  1
  O  O171  1  0.04654128  0.19081871  0.44417153  1
  O  O172  1  0.04654128  0.52415205  0.44417153  1
  O  O173  1  0.04654128  0.85748538  0.44417153  1
  O  O174  1  0.37987461  0.19081871  0.44417153  1
  O  O175  1  0.37987461  0.52415205  0.44417153  1
  O  O176  1  0.37987461  0.85748538  0.44417153  1
  O  O177  1  0.71320795  0.19081871  0.44417153  1
  O  O178  1  0.71320795  0.52415205  0.44417153  1
  O  O179  1  0.71320795  0.85748538  0.44417153  1
  O  O180  1  0.13855189  0.29256878  0.16860240  1
  O  O181  1  0.13855189  0.62590211  0.16860240  1
  O  O182  1  0.13855189  0.95923544  0.16860240  1
  O  O183  1  0.47188522  0.29256878  0.16860240  1
  O  O184  1  0.47188522  0.62590211  0.16860240  1
  O  O185  1  0.47188522  0.95923544  0.16860240  1
  O  O186  1  0.80521856  0.29256878  0.16860240  1
  O  O187  1  0.80521856  0.62590211  0.16860240  1
  O  O188  1  0.80521856  0.95923544  0.16860240  1
  O  O189  1  0.13855189  0.20743122  0.66860240  1
  O  O190  1  0.13855189  0.54076456  0.66860240  1
  O  O191  1  0.13855189  0.87409789  0.66860240  1
  O  O192  1  0.47188522  0.20743122  0.66860240  1
  O  O193  1  0.47188522  0.54076456  0.66860240  1
  O  O194  1  0.47188522  0.87409789  0.66860240  1
  O  O195  1  0.80521856  0.20743122  0.66860240  1
  O  O196  1  0.80521856  0.54076456  0.66860240  1
  O  O197  1  0.80521856  0.87409789  0.66860240  1
  O  O198  1  0.19478144  0.04076456  0.83139760  1
  O  O199  1  0.19478144  0.37409789  0.83139760  1
  O  O200  1  0.19478144  0.70743122  0.83139760  1
  O  O201  1  0.52811478  0.04076456  0.83139760  1
  O  O202  1  0.52811478  0.37409789  0.83139760  1
  O  O203  1  0.52811478  0.70743122  0.83139760  1
  O  O204  1  0.86144811  0.04076456  0.83139760  1
  O  O205  1  0.86144811  0.37409789  0.83139760  1
  O  O206  1  0.86144811  0.70743122  0.83139760  1
  O  O207  1  0.19478144  0.12590211  0.33139760  1
  O  O208  1  0.19478144  0.45923544  0.33139760  1
  O  O209  1  0.19478144  0.79256878  0.33139760  1
  O  O210  1  0.52811478  0.12590211  0.33139760  1
  O  O211  1  0.52811478  0.45923544  0.33139760  1
  O  O212  1  0.52811478  0.79256878  0.33139760  1
  O  O213  1  0.86144811  0.12590211  0.33139760  1
  O  O214  1  0.86144811  0.45923544  0.33139760  1
  O  O215  1  0.86144811  0.79256878  0.33139760  1
