# generated using pymatgen
data_Cs2Sn(GeO3)3
_symmetry_space_group_name_H-M   'P 1'
_cell_length_a   14.64758909
_cell_length_b   14.64758909
_cell_length_c   10.58652482
_cell_angle_alpha   90.00000000
_cell_angle_beta   90.00000000
_cell_angle_gamma   120.00000000
_symmetry_Int_Tables_number   1
_chemical_formula_structural   Cs2Sn(GeO3)3
_chemical_formula_sum   'Cs16 Sn8 Ge24 O72'
_cell_volume   1967.05429743
_cell_formula_units_Z   8
loop_
 _symmetry_equiv_pos_site_id
 _symmetry_equiv_pos_as_xyz
  1  'x, y, z'
loop_
 _atom_site_type_symbol
 _atom_site_label
 _atom_site_symmetry_multiplicity
 _atom_site_fract_x
 _atom_site_fract_y
 _atom_site_fract_z
 _atom_site_occupancy
  Cs  Cs0  1  0.33333333  0.16666667  0.55751272  1
  Cs  Cs1  1  0.33333333  0.66666667  0.55751272  1
  Cs  Cs2  1  0.83333333  0.16666667  0.55751272  1
  Cs  Cs3  1  0.83333333  0.66666667  0.55751272  1
  Cs  Cs4  1  0.16666667  0.33333333  0.05751272  1
  Cs  Cs5  1  0.16666667  0.83333333  0.05751272  1
  Cs  Cs6  1  0.66666667  0.33333333  0.05751272  1
  Cs  Cs7  1  0.66666667  0.83333333  0.05751272  1
  Cs  Cs8  1  0.16666667  0.33333333  0.44248728  1
  Cs  Cs9  1  0.16666667  0.83333333  0.44248728  1
  Cs  Cs10  1  0.66666667  0.33333333  0.44248728  1
  Cs  Cs11  1  0.66666667  0.83333333  0.44248728  1
  Cs  Cs12  1  0.33333333  0.16666667  0.94248728  1
  Cs  Cs13  1  0.33333333  0.66666667  0.94248728  1
  Cs  Cs14  1  0.83333333  0.16666667  0.94248728  1
  Cs  Cs15  1  0.83333333  0.66666667  0.94248728  1
  Sn  Sn16  1  0.00000000  0.00000000  0.50000000  1
  Sn  Sn17  1  -0.00000000  0.50000000  0.50000000  1
  Sn  Sn18  1  0.50000000  0.00000000  0.50000000  1
  Sn  Sn19  1  0.50000000  0.50000000  0.50000000  1
  Sn  Sn20  1  0.00000000  0.00000000  0.00000000  1
  Sn  Sn21  1  -0.00000000  0.50000000  0.00000000  1
  Sn  Sn22  1  0.50000000  0.00000000  0.00000000  1
  Sn  Sn23  1  0.50000000  0.50000000  0.00000000  1
  Ge  Ge24  1  0.11745405  0.43141981  0.75000000  1
  Ge  Ge25  1  0.11745405  0.93141981  0.75000000  1
  Ge  Ge26  1  0.61745405  0.43141981  0.75000000  1
  Ge  Ge27  1  0.61745405  0.93141981  0.75000000  1
  Ge  Ge28  1  0.18603424  0.11745405  0.25000000  1
  Ge  Ge29  1  0.18603424  0.61745405  0.25000000  1
  Ge  Ge30  1  0.68603424  0.11745405  0.25000000  1
  Ge  Ge31  1  0.68603424  0.61745405  0.25000000  1
  Ge  Ge32  1  0.43141981  0.31396576  0.25000000  1
  Ge  Ge33  1  0.43141981  0.81396576  0.25000000  1
  Ge  Ge34  1  0.93141981  0.31396576  0.25000000  1
  Ge  Ge35  1  0.93141981  0.81396576  0.25000000  1
  Ge  Ge36  1  0.06858019  0.18603424  0.75000000  1
  Ge  Ge37  1  0.06858019  0.68603424  0.75000000  1
  Ge  Ge38  1  0.56858019  0.18603424  0.75000000  1
  Ge  Ge39  1  0.56858019  0.68603424  0.75000000  1
  Ge  Ge40  1  0.31396576  0.38254595  0.75000000  1
  Ge  Ge41  1  0.31396576  0.88254595  0.75000000  1
  Ge  Ge42  1  0.81396576  0.38254595  0.75000000  1
  Ge  Ge43  1  0.81396576  0.88254595  0.75000000  1
  Ge  Ge44  1  0.38254595  0.06858019  0.25000000  1
  Ge  Ge45  1  0.38254595  0.56858019  0.25000000  1
  Ge  Ge46  1  0.88254595  0.06858019  0.25000000  1
  Ge  Ge47  1  0.88254595  0.56858019  0.25000000  1
  O  O48  1  0.03477483  0.29028524  0.75000000  1
  O  O49  1  0.03477483  0.79028524  0.75000000  1
  O  O50  1  0.53477483  0.29028524  0.75000000  1
  O  O51  1  0.53477483  0.79028524  0.75000000  1
  O  O52  1  0.24448960  0.03477483  0.25000000  1
  O  O53  1  0.24448960  0.53477483  0.25000000  1
  O  O54  1  0.74448960  0.03477483  0.25000000  1
  O  O55  1  0.74448960  0.53477483  0.25000000  1
  O  O56  1  0.29028524  0.25551040  0.25000000  1
  O  O57  1  0.29028524  0.75551040  0.25000000  1
  O  O58  1  0.79028524  0.25551040  0.25000000  1
  O  O59  1  0.79028524  0.75551040  0.25000000  1
  O  O60  1  0.20971476  0.24448960  0.75000000  1
  O  O61  1  0.20971476  0.74448960  0.75000000  1
  O  O62  1  0.70971476  0.24448960  0.75000000  1
  O  O63  1  0.70971476  0.74448960  0.75000000  1
  O  O64  1  0.25551040  0.46522517  0.75000000  1
  O  O65  1  0.25551040  0.96522517  0.75000000  1
  O  O66  1  0.75551040  0.46522517  0.75000000  1
  O  O67  1  0.75551040  0.96522517  0.75000000  1
  O  O68  1  0.46522517  0.20971476  0.25000000  1
  O  O69  1  0.46522517  0.70971476  0.25000000  1
  O  O70  1  0.96522517  0.20971476  0.25000000  1
  O  O71  1  0.96522517  0.70971476  0.25000000  1
  O  O72  1  0.11171506  0.48910447  0.60695030  1
  O  O73  1  0.11171506  0.98910447  0.60695030  1
  O  O74  1  0.61171506  0.48910447  0.60695030  1
  O  O75  1  0.61171506  0.98910447  0.60695030  1
  O  O76  1  0.12261059  0.11171506  0.10695030  1
  O  O77  1  0.12261059  0.61171506  0.10695030  1
  O  O78  1  0.62261059  0.11171506  0.10695030  1
  O  O79  1  0.62261059  0.61171506  0.10695030  1
  O  O80  1  0.48910447  0.37738941  0.10695030  1
  O  O81  1  0.48910447  0.87738941  0.10695030  1
  O  O82  1  0.98910447  0.37738941  0.10695030  1
  O  O83  1  0.98910447  0.87738941  0.10695030  1
  O  O84  1  0.01089553  0.12261059  0.60695030  1
  O  O85  1  0.01089553  0.62261059  0.60695030  1
  O  O86  1  0.51089553  0.12261059  0.60695030  1
  O  O87  1  0.51089553  0.62261059  0.60695030  1
  O  O88  1  0.37738941  0.38828494  0.60695030  1
  O  O89  1  0.37738941  0.88828494  0.60695030  1
  O  O90  1  0.87738941  0.38828494  0.60695030  1
  O  O91  1  0.87738941  0.88828494  0.60695030  1
  O  O92  1  0.38828494  0.01089553  0.10695030  1
  O  O93  1  0.38828494  0.51089553  0.10695030  1
  O  O94  1  0.88828494  0.01089553  0.10695030  1
  O  O95  1  0.88828494  0.51089553  0.10695030  1
  O  O96  1  0.38828494  0.01089553  0.39304970  1
  O  O97  1  0.38828494  0.51089553  0.39304970  1
  O  O98  1  0.88828494  0.01089553  0.39304970  1
  O  O99  1  0.88828494  0.51089553  0.39304970  1
  O  O100  1  0.37738941  0.38828494  0.89304970  1
  O  O101  1  0.37738941  0.88828494  0.89304970  1
  O  O102  1  0.87738941  0.38828494  0.89304970  1
  O  O103  1  0.87738941  0.88828494  0.89304970  1
  O  O104  1  0.01089553  0.12261059  0.89304970  1
  O  O105  1  0.01089553  0.62261059  0.89304970  1
  O  O106  1  0.51089553  0.12261059  0.89304970  1
  O  O107  1  0.51089553  0.62261059  0.89304970  1
  O  O108  1  0.48910447  0.37738941  0.39304970  1
  O  O109  1  0.48910447  0.87738941  0.39304970  1
  O  O110  1  0.98910447  0.37738941  0.39304970  1
  O  O111  1  0.98910447  0.87738941  0.39304970  1
  O  O112  1  0.12261059  0.11171506  0.39304970  1
  O  O113  1  0.12261059  0.61171506  0.39304970  1
  O  O114  1  0.62261059  0.11171506  0.39304970  1
  O  O115  1  0.62261059  0.61171506  0.39304970  1
  O  O116  1  0.11171506  0.48910447  0.89304970  1
  O  O117  1  0.11171506  0.98910447  0.89304970  1
  O  O118  1  0.61171506  0.48910447  0.89304970  1
  O  O119  1  0.61171506  0.98910447  0.89304970  1
