# generated using pymatgen
data_NaSrBO3
_symmetry_space_group_name_H-M   'P 1'
_cell_length_a   15.88920995
_cell_length_b   18.37938276
_cell_length_c   17.98211400
_cell_angle_alpha   90.00000000
_cell_angle_beta   100.64361928
_cell_angle_gamma   90.00000000
_symmetry_Int_Tables_number   1
_chemical_formula_structural   NaSrBO3
_chemical_formula_sum   'Na72 Sr72 B72 O216'
_cell_volume   5161.03638376
_cell_formula_units_Z   72
loop_
 _symmetry_equiv_pos_site_id
 _symmetry_equiv_pos_as_xyz
  1  'x, y, z'
loop_
 _atom_site_type_symbol
 _atom_site_label
 _atom_site_symmetry_multiplicity
 _atom_site_fract_x
 _atom_site_fract_y
 _atom_site_fract_z
 _atom_site_occupancy
  Na  Na0  1  0.24782000  0.37933392  0.32146094  1
  Na  Na1  1  0.24782000  0.37933392  0.65479428  1
  Na  Na2  1  0.24782000  0.37933392  0.98812761  1
  Na  Na3  1  0.24782000  0.87933392  0.32146094  1
  Na  Na4  1  0.24782000  0.87933392  0.65479428  1
  Na  Na5  1  0.24782000  0.87933392  0.98812761  1
  Na  Na6  1  0.58115334  0.37933392  0.32146094  1
  Na  Na7  1  0.58115334  0.37933392  0.65479428  1
  Na  Na8  1  0.58115334  0.37933392  0.98812761  1
  Na  Na9  1  0.58115334  0.87933392  0.32146094  1
  Na  Na10  1  0.58115334  0.87933392  0.65479428  1
  Na  Na11  1  0.58115334  0.87933392  0.98812761  1
  Na  Na12  1  0.91448667  0.37933392  0.32146094  1
  Na  Na13  1  0.91448667  0.37933392  0.65479428  1
  Na  Na14  1  0.91448667  0.37933392  0.98812761  1
  Na  Na15  1  0.91448667  0.87933392  0.32146094  1
  Na  Na16  1  0.91448667  0.87933392  0.65479428  1
  Na  Na17  1  0.91448667  0.87933392  0.98812761  1
  Na  Na18  1  0.08551333  0.12933392  0.17853906  1
  Na  Na19  1  0.08551333  0.12933392  0.51187239  1
  Na  Na20  1  0.08551333  0.12933392  0.84520572  1
  Na  Na21  1  0.08551333  0.62933392  0.17853906  1
  Na  Na22  1  0.08551333  0.62933392  0.51187239  1
  Na  Na23  1  0.08551333  0.62933392  0.84520572  1
  Na  Na24  1  0.41884666  0.12933392  0.17853906  1
  Na  Na25  1  0.41884666  0.12933392  0.51187239  1
  Na  Na26  1  0.41884666  0.12933392  0.84520572  1
  Na  Na27  1  0.41884666  0.62933392  0.17853906  1
  Na  Na28  1  0.41884666  0.62933392  0.51187239  1
  Na  Na29  1  0.41884666  0.62933392  0.84520572  1
  Na  Na30  1  0.75218000  0.12933392  0.17853906  1
  Na  Na31  1  0.75218000  0.12933392  0.51187239  1
  Na  Na32  1  0.75218000  0.12933392  0.84520572  1
  Na  Na33  1  0.75218000  0.62933392  0.17853906  1
  Na  Na34  1  0.75218000  0.62933392  0.51187239  1
  Na  Na35  1  0.75218000  0.62933392  0.84520572  1
  Na  Na36  1  0.08551333  0.12066608  0.01187239  1
  Na  Na37  1  0.08551333  0.12066608  0.34520572  1
  Na  Na38  1  0.08551333  0.12066608  0.67853906  1
  Na  Na39  1  0.08551333  0.62066608  0.01187239  1
  Na  Na40  1  0.08551333  0.62066608  0.34520572  1
  Na  Na41  1  0.08551333  0.62066608  0.67853906  1
  Na  Na42  1  0.41884666  0.12066608  0.01187239  1
  Na  Na43  1  0.41884666  0.12066608  0.34520572  1
  Na  Na44  1  0.41884666  0.12066608  0.67853906  1
  Na  Na45  1  0.41884666  0.62066608  0.01187239  1
  Na  Na46  1  0.41884666  0.62066608  0.34520572  1
  Na  Na47  1  0.41884666  0.62066608  0.67853906  1
  Na  Na48  1  0.75218000  0.12066608  0.01187239  1
  Na  Na49  1  0.75218000  0.12066608  0.34520572  1
  Na  Na50  1  0.75218000  0.12066608  0.67853906  1
  Na  Na51  1  0.75218000  0.62066608  0.01187239  1
  Na  Na52  1  0.75218000  0.62066608  0.34520572  1
  Na  Na53  1  0.75218000  0.62066608  0.67853906  1
  Na  Na54  1  0.24782000  0.37066608  0.15479428  1
  Na  Na55  1  0.24782000  0.37066608  0.48812761  1
  Na  Na56  1  0.24782000  0.37066608  0.82146094  1
  Na  Na57  1  0.24782000  0.87066608  0.15479428  1
  Na  Na58  1  0.24782000  0.87066608  0.48812761  1
  Na  Na59  1  0.24782000  0.87066608  0.82146094  1
  Na  Na60  1  0.58115334  0.37066608  0.15479428  1
  Na  Na61  1  0.58115334  0.37066608  0.48812761  1
  Na  Na62  1  0.58115334  0.37066608  0.82146094  1
  Na  Na63  1  0.58115334  0.87066608  0.15479428  1
  Na  Na64  1  0.58115334  0.87066608  0.48812761  1
  Na  Na65  1  0.58115334  0.87066608  0.82146094  1
  Na  Na66  1  0.91448667  0.37066608  0.15479428  1
  Na  Na67  1  0.91448667  0.37066608  0.48812761  1
  Na  Na68  1  0.91448667  0.37066608  0.82146094  1
  Na  Na69  1  0.91448667  0.87066608  0.15479428  1
  Na  Na70  1  0.91448667  0.87066608  0.48812761  1
  Na  Na71  1  0.91448667  0.87066608  0.82146094  1
  Sr  Sr72  1  0.08205021  0.29284275  0.07197286  1
  Sr  Sr73  1  0.08205021  0.29284275  0.40530619  1
  Sr  Sr74  1  0.08205021  0.29284275  0.73863952  1
  Sr  Sr75  1  0.08205021  0.79284275  0.07197286  1
  Sr  Sr76  1  0.08205021  0.79284275  0.40530619  1
  Sr  Sr77  1  0.08205021  0.79284275  0.73863952  1
  Sr  Sr78  1  0.41538355  0.29284275  0.07197286  1
  Sr  Sr79  1  0.41538355  0.29284275  0.40530619  1
  Sr  Sr80  1  0.41538355  0.29284275  0.73863952  1
  Sr  Sr81  1  0.41538355  0.79284275  0.07197286  1
  Sr  Sr82  1  0.41538355  0.79284275  0.40530619  1
  Sr  Sr83  1  0.41538355  0.79284275  0.73863952  1
  Sr  Sr84  1  0.74871688  0.29284275  0.07197286  1
  Sr  Sr85  1  0.74871688  0.29284275  0.40530619  1
  Sr  Sr86  1  0.74871688  0.29284275  0.73863952  1
  Sr  Sr87  1  0.74871688  0.79284275  0.07197286  1
  Sr  Sr88  1  0.74871688  0.79284275  0.40530619  1
  Sr  Sr89  1  0.74871688  0.79284275  0.73863952  1
  Sr  Sr90  1  0.25128312  0.04284275  0.09469381  1
  Sr  Sr91  1  0.25128312  0.04284275  0.42802714  1
  Sr  Sr92  1  0.25128312  0.04284275  0.76136048  1
  Sr  Sr93  1  0.25128312  0.54284275  0.09469381  1
  Sr  Sr94  1  0.25128312  0.54284275  0.42802714  1
  Sr  Sr95  1  0.25128312  0.54284275  0.76136048  1
  Sr  Sr96  1  0.58461645  0.04284275  0.09469381  1
  Sr  Sr97  1  0.58461645  0.04284275  0.42802714  1
  Sr  Sr98  1  0.58461645  0.04284275  0.76136048  1
  Sr  Sr99  1  0.58461645  0.54284275  0.09469381  1
  Sr  Sr100  1  0.58461645  0.54284275  0.42802714  1
  Sr  Sr101  1  0.58461645  0.54284275  0.76136048  1
  Sr  Sr102  1  0.91794979  0.04284275  0.09469381  1
  Sr  Sr103  1  0.91794979  0.04284275  0.42802714  1
  Sr  Sr104  1  0.91794979  0.04284275  0.76136048  1
  Sr  Sr105  1  0.91794979  0.54284275  0.09469381  1
  Sr  Sr106  1  0.91794979  0.54284275  0.42802714  1
  Sr  Sr107  1  0.91794979  0.54284275  0.76136048  1
  Sr  Sr108  1  0.25128312  0.20715725  0.26136048  1
  Sr  Sr109  1  0.25128312  0.20715725  0.59469381  1
  Sr  Sr110  1  0.25128312  0.20715725  0.92802714  1
  Sr  Sr111  1  0.25128312  0.70715725  0.26136048  1
  Sr  Sr112  1  0.25128312  0.70715725  0.59469381  1
  Sr  Sr113  1  0.25128312  0.70715725  0.92802714  1
  Sr  Sr114  1  0.58461645  0.20715725  0.26136048  1
  Sr  Sr115  1  0.58461645  0.20715725  0.59469381  1
  Sr  Sr116  1  0.58461645  0.20715725  0.92802714  1
  Sr  Sr117  1  0.58461645  0.70715725  0.26136048  1
  Sr  Sr118  1  0.58461645  0.70715725  0.59469381  1
  Sr  Sr119  1  0.58461645  0.70715725  0.92802714  1
  Sr  Sr120  1  0.91794979  0.20715725  0.26136048  1
  Sr  Sr121  1  0.91794979  0.20715725  0.59469381  1
  Sr  Sr122  1  0.91794979  0.20715725  0.92802714  1
  Sr  Sr123  1  0.91794979  0.70715725  0.26136048  1
  Sr  Sr124  1  0.91794979  0.70715725  0.59469381  1
  Sr  Sr125  1  0.91794979  0.70715725  0.92802714  1
  Sr  Sr126  1  0.08205021  0.45715725  0.23863952  1
  Sr  Sr127  1  0.08205021  0.45715725  0.57197286  1
  Sr  Sr128  1  0.08205021  0.45715725  0.90530619  1
  Sr  Sr129  1  0.08205021  0.95715725  0.23863952  1
  Sr  Sr130  1  0.08205021  0.95715725  0.57197286  1
  Sr  Sr131  1  0.08205021  0.95715725  0.90530619  1
  Sr  Sr132  1  0.41538355  0.45715725  0.23863952  1
  Sr  Sr133  1  0.41538355  0.45715725  0.57197286  1
  Sr  Sr134  1  0.41538355  0.45715725  0.90530619  1
  Sr  Sr135  1  0.41538355  0.95715725  0.23863952  1
  Sr  Sr136  1  0.41538355  0.95715725  0.57197286  1
  Sr  Sr137  1  0.41538355  0.95715725  0.90530619  1
  Sr  Sr138  1  0.74871688  0.45715725  0.23863952  1
  Sr  Sr139  1  0.74871688  0.45715725  0.57197286  1
  Sr  Sr140  1  0.74871688  0.45715725  0.90530619  1
  Sr  Sr141  1  0.74871688  0.95715725  0.23863952  1
  Sr  Sr142  1  0.74871688  0.95715725  0.57197286  1
  Sr  Sr143  1  0.74871688  0.95715725  0.90530619  1
  B  B144  1  0.25073960  0.04046885  0.25390823  1
  B  B145  1  0.25073960  0.04046885  0.58724156  1
  B  B146  1  0.25073960  0.04046885  0.92057490  1
  B  B147  1  0.25073960  0.54046885  0.25390823  1
  B  B148  1  0.25073960  0.54046885  0.58724156  1
  B  B149  1  0.25073960  0.54046885  0.92057490  1
  B  B150  1  0.58407293  0.04046885  0.25390823  1
  B  B151  1  0.58407293  0.04046885  0.58724156  1
  B  B152  1  0.58407293  0.04046885  0.92057490  1
  B  B153  1  0.58407293  0.54046885  0.25390823  1
  B  B154  1  0.58407293  0.54046885  0.58724156  1
  B  B155  1  0.58407293  0.54046885  0.92057490  1
  B  B156  1  0.91740627  0.04046885  0.25390823  1
  B  B157  1  0.91740627  0.04046885  0.58724156  1
  B  B158  1  0.91740627  0.04046885  0.92057490  1
  B  B159  1  0.91740627  0.54046885  0.25390823  1
  B  B160  1  0.91740627  0.54046885  0.58724156  1
  B  B161  1  0.91740627  0.54046885  0.92057490  1
  B  B162  1  0.25073960  0.20953115  0.08724156  1
  B  B163  1  0.25073960  0.20953115  0.42057490  1
  B  B164  1  0.25073960  0.20953115  0.75390823  1
  B  B165  1  0.25073960  0.70953115  0.08724156  1
  B  B166  1  0.25073960  0.70953115  0.42057490  1
  B  B167  1  0.25073960  0.70953115  0.75390823  1
  B  B168  1  0.58407293  0.20953115  0.08724156  1
  B  B169  1  0.58407293  0.20953115  0.42057490  1
  B  B170  1  0.58407293  0.20953115  0.75390823  1
  B  B171  1  0.58407293  0.70953115  0.08724156  1
  B  B172  1  0.58407293  0.70953115  0.42057490  1
  B  B173  1  0.58407293  0.70953115  0.75390823  1
  B  B174  1  0.91740627  0.20953115  0.08724156  1
  B  B175  1  0.91740627  0.20953115  0.42057490  1
  B  B176  1  0.91740627  0.20953115  0.75390823  1
  B  B177  1  0.91740627  0.70953115  0.08724156  1
  B  B178  1  0.91740627  0.70953115  0.42057490  1
  B  B179  1  0.91740627  0.70953115  0.75390823  1
  B  B180  1  0.08259373  0.29046885  0.24609177  1
  B  B181  1  0.08259373  0.29046885  0.57942510  1
  B  B182  1  0.08259373  0.29046885  0.91275844  1
  B  B183  1  0.08259373  0.79046885  0.24609177  1
  B  B184  1  0.08259373  0.79046885  0.57942510  1
  B  B185  1  0.08259373  0.79046885  0.91275844  1
  B  B186  1  0.41592707  0.29046885  0.24609177  1
  B  B187  1  0.41592707  0.29046885  0.57942510  1
  B  B188  1  0.41592707  0.29046885  0.91275844  1
  B  B189  1  0.41592707  0.79046885  0.24609177  1
  B  B190  1  0.41592707  0.79046885  0.57942510  1
  B  B191  1  0.41592707  0.79046885  0.91275844  1
  B  B192  1  0.74926040  0.29046885  0.24609177  1
  B  B193  1  0.74926040  0.29046885  0.57942510  1
  B  B194  1  0.74926040  0.29046885  0.91275844  1
  B  B195  1  0.74926040  0.79046885  0.24609177  1
  B  B196  1  0.74926040  0.79046885  0.57942510  1
  B  B197  1  0.74926040  0.79046885  0.91275844  1
  B  B198  1  0.08259373  0.45953115  0.07942510  1
  B  B199  1  0.08259373  0.45953115  0.41275844  1
  B  B200  1  0.08259373  0.45953115  0.74609177  1
  B  B201  1  0.08259373  0.95953115  0.07942510  1
  B  B202  1  0.08259373  0.95953115  0.41275844  1
  B  B203  1  0.08259373  0.95953115  0.74609177  1
  B  B204  1  0.41592707  0.45953115  0.07942510  1
  B  B205  1  0.41592707  0.45953115  0.41275844  1
  B  B206  1  0.41592707  0.45953115  0.74609177  1
  B  B207  1  0.41592707  0.95953115  0.07942510  1
  B  B208  1  0.41592707  0.95953115  0.41275844  1
  B  B209  1  0.41592707  0.95953115  0.74609177  1
  B  B210  1  0.74926040  0.45953115  0.07942510  1
  B  B211  1  0.74926040  0.45953115  0.41275844  1
  B  B212  1  0.74926040  0.45953115  0.74609177  1
  B  B213  1  0.74926040  0.95953115  0.07942510  1
  B  B214  1  0.74926040  0.95953115  0.41275844  1
  B  B215  1  0.74926040  0.95953115  0.74609177  1
  O  O216  1  0.09104708  0.03092536  0.10441506  1
  O  O217  1  0.09104708  0.03092536  0.43774839  1
  O  O218  1  0.09104708  0.03092536  0.77108173  1
  O  O219  1  0.09104708  0.53092536  0.10441506  1
  O  O220  1  0.09104708  0.53092536  0.43774839  1
  O  O221  1  0.09104708  0.53092536  0.77108173  1
  O  O222  1  0.42438041  0.03092536  0.10441506  1
  O  O223  1  0.42438041  0.03092536  0.43774839  1
  O  O224  1  0.42438041  0.03092536  0.77108173  1
  O  O225  1  0.42438041  0.53092536  0.10441506  1
  O  O226  1  0.42438041  0.53092536  0.43774839  1
  O  O227  1  0.42438041  0.53092536  0.77108173  1
  O  O228  1  0.75771375  0.03092536  0.10441506  1
  O  O229  1  0.75771375  0.03092536  0.43774839  1
  O  O230  1  0.75771375  0.03092536  0.77108173  1
  O  O231  1  0.75771375  0.53092536  0.10441506  1
  O  O232  1  0.75771375  0.53092536  0.43774839  1
  O  O233  1  0.75771375  0.53092536  0.77108173  1
  O  O234  1  0.32071988  0.17055964  0.07268322  1
  O  O235  1  0.32071988  0.17055964  0.40601656  1
  O  O236  1  0.32071988  0.17055964  0.73934989  1
  O  O237  1  0.32071988  0.67055964  0.07268322  1
  O  O238  1  0.32071988  0.67055964  0.40601656  1
  O  O239  1  0.32071988  0.67055964  0.73934989  1
  O  O240  1  0.65405321  0.17055964  0.07268322  1
  O  O241  1  0.65405321  0.17055964  0.40601656  1
  O  O242  1  0.65405321  0.17055964  0.73934989  1
  O  O243  1  0.65405321  0.67055964  0.07268322  1
  O  O244  1  0.65405321  0.67055964  0.40601656  1
  O  O245  1  0.65405321  0.67055964  0.73934989  1
  O  O246  1  0.98738655  0.17055964  0.07268322  1
  O  O247  1  0.98738655  0.17055964  0.40601656  1
  O  O248  1  0.98738655  0.17055964  0.73934989  1
  O  O249  1  0.98738655  0.67055964  0.07268322  1
  O  O250  1  0.98738655  0.67055964  0.40601656  1
  O  O251  1  0.98738655  0.67055964  0.73934989  1
  O  O252  1  0.24228625  0.46907464  0.22891827  1
  O  O253  1  0.24228625  0.46907464  0.56225161  1
  O  O254  1  0.24228625  0.46907464  0.89558494  1
  O  O255  1  0.24228625  0.96907464  0.22891827  1
  O  O256  1  0.24228625  0.96907464  0.56225161  1
  O  O257  1  0.24228625  0.96907464  0.89558494  1
  O  O258  1  0.57561959  0.46907464  0.22891827  1
  O  O259  1  0.57561959  0.46907464  0.56225161  1
  O  O260  1  0.57561959  0.46907464  0.89558494  1
  O  O261  1  0.57561959  0.96907464  0.22891827  1
  O  O262  1  0.57561959  0.96907464  0.56225161  1
  O  O263  1  0.57561959  0.96907464  0.89558494  1
  O  O264  1  0.90895292  0.46907464  0.22891827  1
  O  O265  1  0.90895292  0.46907464  0.56225161  1
  O  O266  1  0.90895292  0.46907464  0.89558494  1
  O  O267  1  0.90895292  0.96907464  0.22891827  1
  O  O268  1  0.90895292  0.96907464  0.56225161  1
  O  O269  1  0.90895292  0.96907464  0.89558494  1
  O  O270  1  0.14371125  0.42716772  0.04444963  1
  O  O271  1  0.14371125  0.42716772  0.37778297  1
  O  O272  1  0.14371125  0.42716772  0.71111630  1
  O  O273  1  0.14371125  0.92716772  0.04444963  1
  O  O274  1  0.14371125  0.92716772  0.37778297  1
  O  O275  1  0.14371125  0.92716772  0.71111630  1
  O  O276  1  0.47704459  0.42716772  0.04444963  1
  O  O277  1  0.47704459  0.42716772  0.37778297  1
  O  O278  1  0.47704459  0.42716772  0.71111630  1
  O  O279  1  0.47704459  0.92716772  0.04444963  1
  O  O280  1  0.47704459  0.92716772  0.37778297  1
  O  O281  1  0.47704459  0.92716772  0.71111630  1
  O  O282  1  0.81037792  0.42716772  0.04444963  1
  O  O283  1  0.81037792  0.42716772  0.37778297  1
  O  O284  1  0.81037792  0.42716772  0.71111630  1
  O  O285  1  0.81037792  0.92716772  0.04444963  1
  O  O286  1  0.81037792  0.92716772  0.37778297  1
  O  O287  1  0.81037792  0.92716772  0.71111630  1
  O  O288  1  0.18962208  0.17716772  0.12221703  1
  O  O289  1  0.18962208  0.17716772  0.45555037  1
  O  O290  1  0.18962208  0.17716772  0.78888370  1
  O  O291  1  0.18962208  0.67716772  0.12221703  1
  O  O292  1  0.18962208  0.67716772  0.45555037  1
  O  O293  1  0.18962208  0.67716772  0.78888370  1
  O  O294  1  0.52295541  0.17716772  0.12221703  1
  O  O295  1  0.52295541  0.17716772  0.45555037  1
  O  O296  1  0.52295541  0.17716772  0.78888370  1
  O  O297  1  0.52295541  0.67716772  0.12221703  1
  O  O298  1  0.52295541  0.67716772  0.45555037  1
  O  O299  1  0.52295541  0.67716772  0.78888370  1
  O  O300  1  0.85628875  0.17716772  0.12221703  1
  O  O301  1  0.85628875  0.17716772  0.45555037  1
  O  O302  1  0.85628875  0.17716772  0.78888370  1
  O  O303  1  0.85628875  0.67716772  0.12221703  1
  O  O304  1  0.85628875  0.67716772  0.45555037  1
  O  O305  1  0.85628875  0.67716772  0.78888370  1
  O  O306  1  0.14371125  0.32283228  0.21111630  1
  O  O307  1  0.14371125  0.32283228  0.54444963  1
  O  O308  1  0.14371125  0.32283228  0.87778297  1
  O  O309  1  0.14371125  0.82283228  0.21111630  1
  O  O310  1  0.14371125  0.82283228  0.54444963  1
  O  O311  1  0.14371125  0.82283228  0.87778297  1
  O  O312  1  0.47704459  0.32283228  0.21111630  1
  O  O313  1  0.47704459  0.32283228  0.54444963  1
  O  O314  1  0.47704459  0.32283228  0.87778297  1
  O  O315  1  0.47704459  0.82283228  0.21111630  1
  O  O316  1  0.47704459  0.82283228  0.54444963  1
  O  O317  1  0.47704459  0.82283228  0.87778297  1
  O  O318  1  0.81037792  0.32283228  0.21111630  1
  O  O319  1  0.81037792  0.32283228  0.54444963  1
  O  O320  1  0.81037792  0.32283228  0.87778297  1
  O  O321  1  0.81037792  0.82283228  0.21111630  1
  O  O322  1  0.81037792  0.82283228  0.54444963  1
  O  O323  1  0.81037792  0.82283228  0.87778297  1
  O  O324  1  0.18962208  0.07283228  0.28888370  1
  O  O325  1  0.18962208  0.07283228  0.62221703  1
  O  O326  1  0.18962208  0.07283228  0.95555037  1
  O  O327  1  0.18962208  0.57283228  0.28888370  1
  O  O328  1  0.18962208  0.57283228  0.62221703  1
  O  O329  1  0.18962208  0.57283228  0.95555037  1
  O  O330  1  0.52295541  0.07283228  0.28888370  1
  O  O331  1  0.52295541  0.07283228  0.62221703  1
  O  O332  1  0.52295541  0.07283228  0.95555037  1
  O  O333  1  0.52295541  0.57283228  0.28888370  1
  O  O334  1  0.52295541  0.57283228  0.62221703  1
  O  O335  1  0.52295541  0.57283228  0.95555037  1
  O  O336  1  0.85628875  0.07283228  0.28888370  1
  O  O337  1  0.85628875  0.07283228  0.62221703  1
  O  O338  1  0.85628875  0.07283228  0.95555037  1
  O  O339  1  0.85628875  0.57283228  0.28888370  1
  O  O340  1  0.85628875  0.57283228  0.62221703  1
  O  O341  1  0.85628875  0.57283228  0.95555037  1
  O  O342  1  0.09104708  0.21907464  0.27108173  1
  O  O343  1  0.09104708  0.21907464  0.60441506  1
  O  O344  1  0.09104708  0.21907464  0.93774839  1
  O  O345  1  0.09104708  0.71907464  0.27108173  1
  O  O346  1  0.09104708  0.71907464  0.60441506  1
  O  O347  1  0.09104708  0.71907464  0.93774839  1
  O  O348  1  0.42438041  0.21907464  0.27108173  1
  O  O349  1  0.42438041  0.21907464  0.60441506  1
  O  O350  1  0.42438041  0.21907464  0.93774839  1
  O  O351  1  0.42438041  0.71907464  0.27108173  1
  O  O352  1  0.42438041  0.71907464  0.60441506  1
  O  O353  1  0.42438041  0.71907464  0.93774839  1
  O  O354  1  0.75771375  0.21907464  0.27108173  1
  O  O355  1  0.75771375  0.21907464  0.60441506  1
  O  O356  1  0.75771375  0.21907464  0.93774839  1
  O  O357  1  0.75771375  0.71907464  0.27108173  1
  O  O358  1  0.75771375  0.71907464  0.60441506  1
  O  O359  1  0.75771375  0.71907464  0.93774839  1
  O  O360  1  0.01261345  0.32944036  0.26065011  1
  O  O361  1  0.01261345  0.32944036  0.59398344  1
  O  O362  1  0.01261345  0.32944036  0.92731678  1
  O  O363  1  0.01261345  0.82944036  0.26065011  1
  O  O364  1  0.01261345  0.82944036  0.59398344  1
  O  O365  1  0.01261345  0.82944036  0.92731678  1
  O  O366  1  0.34594679  0.32944036  0.26065011  1
  O  O367  1  0.34594679  0.32944036  0.59398344  1
  O  O368  1  0.34594679  0.32944036  0.92731678  1
  O  O369  1  0.34594679  0.82944036  0.26065011  1
  O  O370  1  0.34594679  0.82944036  0.59398344  1
  O  O371  1  0.34594679  0.82944036  0.92731678  1
  O  O372  1  0.67928012  0.32944036  0.26065011  1
  O  O373  1  0.67928012  0.32944036  0.59398344  1
  O  O374  1  0.67928012  0.32944036  0.92731678  1
  O  O375  1  0.67928012  0.82944036  0.26065011  1
  O  O376  1  0.67928012  0.82944036  0.59398344  1
  O  O377  1  0.67928012  0.82944036  0.92731678  1
  O  O378  1  0.01261345  0.42055964  0.09398344  1
  O  O379  1  0.01261345  0.42055964  0.42731678  1
  O  O380  1  0.01261345  0.42055964  0.76065011  1
  O  O381  1  0.01261345  0.92055964  0.09398344  1
  O  O382  1  0.01261345  0.92055964  0.42731678  1
  O  O383  1  0.01261345  0.92055964  0.76065011  1
  O  O384  1  0.34594679  0.42055964  0.09398344  1
  O  O385  1  0.34594679  0.42055964  0.42731678  1
  O  O386  1  0.34594679  0.42055964  0.76065011  1
  O  O387  1  0.34594679  0.92055964  0.09398344  1
  O  O388  1  0.34594679  0.92055964  0.42731678  1
  O  O389  1  0.34594679  0.92055964  0.76065011  1
  O  O390  1  0.67928012  0.42055964  0.09398344  1
  O  O391  1  0.67928012  0.42055964  0.42731678  1
  O  O392  1  0.67928012  0.42055964  0.76065011  1
  O  O393  1  0.67928012  0.92055964  0.09398344  1
  O  O394  1  0.67928012  0.92055964  0.42731678  1
  O  O395  1  0.67928012  0.92055964  0.76065011  1
  O  O396  1  0.32071988  0.07944036  0.23934989  1
  O  O397  1  0.32071988  0.07944036  0.57268322  1
  O  O398  1  0.32071988  0.07944036  0.90601656  1
  O  O399  1  0.32071988  0.57944036  0.23934989  1
  O  O400  1  0.32071988  0.57944036  0.57268322  1
  O  O401  1  0.32071988  0.57944036  0.90601656  1
  O  O402  1  0.65405321  0.07944036  0.23934989  1
  O  O403  1  0.65405321  0.07944036  0.57268322  1
  O  O404  1  0.65405321  0.07944036  0.90601656  1
  O  O405  1  0.65405321  0.57944036  0.23934989  1
  O  O406  1  0.65405321  0.57944036  0.57268322  1
  O  O407  1  0.65405321  0.57944036  0.90601656  1
  O  O408  1  0.98738655  0.07944036  0.23934989  1
  O  O409  1  0.98738655  0.07944036  0.57268322  1
  O  O410  1  0.98738655  0.07944036  0.90601656  1
  O  O411  1  0.98738655  0.57944036  0.23934989  1
  O  O412  1  0.98738655  0.57944036  0.57268322  1
  O  O413  1  0.98738655  0.57944036  0.90601656  1
  O  O414  1  0.24228625  0.28092536  0.06225161  1
  O  O415  1  0.24228625  0.28092536  0.39558494  1
  O  O416  1  0.24228625  0.28092536  0.72891827  1
  O  O417  1  0.24228625  0.78092536  0.06225161  1
  O  O418  1  0.24228625  0.78092536  0.39558494  1
  O  O419  1  0.24228625  0.78092536  0.72891827  1
  O  O420  1  0.57561959  0.28092536  0.06225161  1
  O  O421  1  0.57561959  0.28092536  0.39558494  1
  O  O422  1  0.57561959  0.28092536  0.72891827  1
  O  O423  1  0.57561959  0.78092536  0.06225161  1
  O  O424  1  0.57561959  0.78092536  0.39558494  1
  O  O425  1  0.57561959  0.78092536  0.72891827  1
  O  O426  1  0.90895292  0.28092536  0.06225161  1
  O  O427  1  0.90895292  0.28092536  0.39558494  1
  O  O428  1  0.90895292  0.28092536  0.72891827  1
  O  O429  1  0.90895292  0.78092536  0.06225161  1
  O  O430  1  0.90895292  0.78092536  0.39558494  1
  O  O431  1  0.90895292  0.78092536  0.72891827  1
