# generated using pymatgen
data_Cs3AlO3
_symmetry_space_group_name_H-M   'P 1'
_cell_length_a   15.59013928
_cell_length_b   12.82625362
_cell_length_c   14.17689974
_cell_angle_alpha   90.00000000
_cell_angle_beta   114.05008718
_cell_angle_gamma   90.00000000
_symmetry_Int_Tables_number   1
_chemical_formula_structural   Cs3AlO3
_chemical_formula_sum   'Cs48 Al16 O48'
_cell_volume   2588.76135735
_cell_formula_units_Z   16
loop_
 _symmetry_equiv_pos_site_id
 _symmetry_equiv_pos_as_xyz
  1  'x, y, z'
loop_
 _atom_site_type_symbol
 _atom_site_label
 _atom_site_symmetry_multiplicity
 _atom_site_fract_x
 _atom_site_fract_y
 _atom_site_fract_z
 _atom_site_occupancy
  Cs  Cs0  1  0.03673566  0.30184238  0.43384754  1
  Cs  Cs1  1  0.03673566  0.30184238  0.93384754  1
  Cs  Cs2  1  0.53673566  0.30184238  0.43384754  1
  Cs  Cs3  1  0.53673566  0.30184238  0.93384754  1
  Cs  Cs4  1  0.23905449  0.65484664  0.27984526  1
  Cs  Cs5  1  0.23905449  0.65484664  0.77984526  1
  Cs  Cs6  1  0.73905449  0.65484664  0.27984526  1
  Cs  Cs7  1  0.73905449  0.65484664  0.77984526  1
  Cs  Cs8  1  0.46326434  0.69815762  0.06615246  1
  Cs  Cs9  1  0.46326434  0.69815762  0.56615246  1
  Cs  Cs10  1  0.96326434  0.69815762  0.06615246  1
  Cs  Cs11  1  0.96326434  0.69815762  0.56615246  1
  Cs  Cs12  1  0.26094551  0.15484664  0.47015474  1
  Cs  Cs13  1  0.26094551  0.15484664  0.97015474  1
  Cs  Cs14  1  0.76094551  0.15484664  0.47015474  1
  Cs  Cs15  1  0.76094551  0.15484664  0.97015474  1
  Cs  Cs16  1  0.46326434  0.80184238  0.31615246  1
  Cs  Cs17  1  0.46326434  0.80184238  0.81615246  1
  Cs  Cs18  1  0.96326434  0.80184238  0.31615246  1
  Cs  Cs19  1  0.96326434  0.80184238  0.81615246  1
  Cs  Cs20  1  0.36398707  0.44165700  0.00725536  1
  Cs  Cs21  1  0.36398707  0.44165700  0.50725536  1
  Cs  Cs22  1  0.86398707  0.44165700  0.00725536  1
  Cs  Cs23  1  0.86398707  0.44165700  0.50725536  1
  Cs  Cs24  1  0.03673566  0.19815762  0.18384754  1
  Cs  Cs25  1  0.03673566  0.19815762  0.68384754  1
  Cs  Cs26  1  0.53673566  0.19815762  0.18384754  1
  Cs  Cs27  1  0.53673566  0.19815762  0.68384754  1
  Cs  Cs28  1  0.26094551  0.34515336  0.22015474  1
  Cs  Cs29  1  0.26094551  0.34515336  0.72015474  1
  Cs  Cs30  1  0.76094551  0.34515336  0.22015474  1
  Cs  Cs31  1  0.76094551  0.34515336  0.72015474  1
  Cs  Cs32  1  0.13601293  0.94165700  0.24274464  1
  Cs  Cs33  1  0.13601293  0.94165700  0.74274464  1
  Cs  Cs34  1  0.63601293  0.94165700  0.24274464  1
  Cs  Cs35  1  0.63601293  0.94165700  0.74274464  1
  Cs  Cs36  1  0.36398707  0.05834300  0.25725536  1
  Cs  Cs37  1  0.36398707  0.05834300  0.75725536  1
  Cs  Cs38  1  0.86398707  0.05834300  0.25725536  1
  Cs  Cs39  1  0.86398707  0.05834300  0.75725536  1
  Cs  Cs40  1  0.13601293  0.55834300  0.49274464  1
  Cs  Cs41  1  0.13601293  0.55834300  0.99274464  1
  Cs  Cs42  1  0.63601293  0.55834300  0.49274464  1
  Cs  Cs43  1  0.63601293  0.55834300  0.99274464  1
  Cs  Cs44  1  0.23905449  0.84515336  0.02984526  1
  Cs  Cs45  1  0.23905449  0.84515336  0.52984526  1
  Cs  Cs46  1  0.73905449  0.84515336  0.02984526  1
  Cs  Cs47  1  0.73905449  0.84515336  0.52984526  1
  Al  Al48  1  0.42905847  0.54696374  0.25709237  1
  Al  Al49  1  0.42905847  0.54696374  0.75709237  1
  Al  Al50  1  0.92905847  0.54696374  0.25709237  1
  Al  Al51  1  0.92905847  0.54696374  0.75709237  1
  Al  Al52  1  0.07094153  0.45303626  0.24290763  1
  Al  Al53  1  0.07094153  0.45303626  0.74290763  1
  Al  Al54  1  0.57094153  0.45303626  0.24290763  1
  Al  Al55  1  0.57094153  0.45303626  0.74290763  1
  Al  Al56  1  0.42905847  0.95303626  0.00709237  1
  Al  Al57  1  0.42905847  0.95303626  0.50709237  1
  Al  Al58  1  0.92905847  0.95303626  0.00709237  1
  Al  Al59  1  0.92905847  0.95303626  0.50709237  1
  Al  Al60  1  0.07094153  0.04696374  0.49290763  1
  Al  Al61  1  0.07094153  0.04696374  0.99290763  1
  Al  Al62  1  0.57094153  0.04696374  0.49290763  1
  Al  Al63  1  0.57094153  0.04696374  0.99290763  1
  O  O64  1  0.16488788  0.10147131  0.10053501  1
  O  O65  1  0.16488788  0.10147131  0.60053501  1
  O  O66  1  0.66488788  0.10147131  0.10053501  1
  O  O67  1  0.66488788  0.10147131  0.60053501  1
  O  O68  1  0.04474642  0.58823411  0.26390660  1
  O  O69  1  0.04474642  0.58823411  0.76390660  1
  O  O70  1  0.54474642  0.58823411  0.26390660  1
  O  O71  1  0.54474642  0.58823411  0.76390660  1
  O  O72  1  0.04474642  0.91176589  0.01390660  1
  O  O73  1  0.04474642  0.91176589  0.51390660  1
  O  O74  1  0.54474642  0.91176589  0.01390660  1
  O  O75  1  0.54474642  0.91176589  0.51390660  1
  O  O76  1  0.41739671  0.93029295  0.12366441  1
  O  O77  1  0.41739671  0.93029295  0.62366441  1
  O  O78  1  0.91739671  0.93029295  0.12366441  1
  O  O79  1  0.91739671  0.93029295  0.62366441  1
  O  O80  1  0.33511212  0.89852869  0.39946499  1
  O  O81  1  0.33511212  0.89852869  0.89946499  1
  O  O82  1  0.83511212  0.89852869  0.39946499  1
  O  O83  1  0.83511212  0.89852869  0.89946499  1
  O  O84  1  0.33511212  0.60147131  0.14946499  1
  O  O85  1  0.33511212  0.60147131  0.64946499  1
  O  O86  1  0.83511212  0.60147131  0.14946499  1
  O  O87  1  0.83511212  0.60147131  0.64946499  1
  O  O88  1  0.16488788  0.39852869  0.35053501  1
  O  O89  1  0.16488788  0.39852869  0.85053501  1
  O  O90  1  0.66488788  0.39852869  0.35053501  1
  O  O91  1  0.66488788  0.39852869  0.85053501  1
  O  O92  1  0.45525358  0.08823411  0.48609340  1
  O  O93  1  0.45525358  0.08823411  0.98609340  1
  O  O94  1  0.95525358  0.08823411  0.48609340  1
  O  O95  1  0.95525358  0.08823411  0.98609340  1
  O  O96  1  0.08260329  0.43029295  0.12633559  1
  O  O97  1  0.08260329  0.43029295  0.62633559  1
  O  O98  1  0.58260329  0.43029295  0.12633559  1
  O  O99  1  0.58260329  0.43029295  0.62633559  1
  O  O100  1  0.41739671  0.56970705  0.37366441  1
  O  O101  1  0.41739671  0.56970705  0.87366441  1
  O  O102  1  0.91739671  0.56970705  0.37366441  1
  O  O103  1  0.91739671  0.56970705  0.87366441  1
  O  O104  1  0.45525358  0.41176589  0.23609340  1
  O  O105  1  0.45525358  0.41176589  0.73609340  1
  O  O106  1  0.95525358  0.41176589  0.23609340  1
  O  O107  1  0.95525358  0.41176589  0.73609340  1
  O  O108  1  0.08260329  0.06970705  0.37633559  1
  O  O109  1  0.08260329  0.06970705  0.87633559  1
  O  O110  1  0.58260329  0.06970705  0.37633559  1
  O  O111  1  0.58260329  0.06970705  0.87633559  1
