# generated using pymatgen
data_CaV2O6
_symmetry_space_group_name_H-M   'P 1'
_cell_length_a   10.35108812
_cell_length_b   10.85586739
_cell_length_c   14.34797181
_cell_angle_alpha   90.00000000
_cell_angle_beta   102.43928545
_cell_angle_gamma   90.00000000
_symmetry_Int_Tables_number   1
_chemical_formula_structural   CaV2O6
_chemical_formula_sum   'Ca12 V24 O72'
_cell_volume   1574.43354131
_cell_formula_units_Z   12
loop_
 _symmetry_equiv_pos_site_id
 _symmetry_equiv_pos_as_xyz
  1  'x, y, z'
loop_
 _atom_site_type_symbol
 _atom_site_label
 _atom_site_symmetry_multiplicity
 _atom_site_fract_x
 _atom_site_fract_y
 _atom_site_fract_z
 _atom_site_occupancy
  Ca  Ca0  1  0.00000000  -0.00000000  0.00000000  1
  Ca  Ca1  1  0.00000000  -0.00000000  0.50000000  1
  Ca  Ca2  1  0.00000000  0.33333333  0.00000000  1
  Ca  Ca3  1  0.00000000  0.33333333  0.50000000  1
  Ca  Ca4  1  0.00000000  0.66666667  0.00000000  1
  Ca  Ca5  1  0.00000000  0.66666667  0.50000000  1
  Ca  Ca6  1  0.50000000  0.16666667  0.00000000  1
  Ca  Ca7  1  0.50000000  0.16666667  0.50000000  1
  Ca  Ca8  1  0.50000000  0.50000000  0.00000000  1
  Ca  Ca9  1  0.50000000  0.50000000  0.50000000  1
  Ca  Ca10  1  0.50000000  0.83333333  0.00000000  1
  Ca  Ca11  1  0.50000000  0.83333333  0.50000000  1
  V  V12  1  0.24299544  -0.00000000  0.33673460  1
  V  V13  1  0.24299544  -0.00000000  0.83673460  1
  V  V14  1  0.24299544  0.33333333  0.33673460  1
  V  V15  1  0.24299544  0.33333333  0.83673460  1
  V  V16  1  0.24299544  0.66666667  0.33673460  1
  V  V17  1  0.24299544  0.66666667  0.83673460  1
  V  V18  1  0.74299544  0.16666667  0.33673460  1
  V  V19  1  0.74299544  0.16666667  0.83673460  1
  V  V20  1  0.74299544  0.50000000  0.33673460  1
  V  V21  1  0.74299544  0.50000000  0.83673460  1
  V  V22  1  0.74299544  0.83333333  0.33673460  1
  V  V23  1  0.74299544  0.83333333  0.83673460  1
  V  V24  1  0.75700456  -0.00000000  0.16326540  1
  V  V25  1  0.75700456  -0.00000000  0.66326540  1
  V  V26  1  0.75700456  0.33333333  0.16326540  1
  V  V27  1  0.75700456  0.33333333  0.66326540  1
  V  V28  1  0.75700456  0.66666667  0.16326540  1
  V  V29  1  0.75700456  0.66666667  0.66326540  1
  V  V30  1  1.25700456  0.16666667  0.16326540  1
  V  V31  1  1.25700456  0.16666667  0.66326540  1
  V  V32  1  1.25700456  0.50000000  0.16326540  1
  V  V33  1  1.25700456  0.50000000  0.66326540  1
  V  V34  1  1.25700456  0.83333333  0.16326540  1
  V  V35  1  1.25700456  0.83333333  0.66326540  1
  O  O36  1  0.75769964  0.00000000  0.30157594  1
  O  O37  1  0.75769964  0.00000000  0.80157594  1
  O  O38  1  0.75769964  0.33333333  0.30157594  1
  O  O39  1  0.75769964  0.33333333  0.80157594  1
  O  O40  1  0.75769964  0.66666667  0.30157594  1
  O  O41  1  0.75769964  0.66666667  0.80157594  1
  O  O42  1  1.25769964  0.16666667  0.30157594  1
  O  O43  1  1.25769964  0.16666667  0.80157594  1
  O  O44  1  1.25769964  0.50000000  0.30157594  1
  O  O45  1  1.25769964  0.50000000  0.80157594  1
  O  O46  1  1.25769964  0.83333333  0.30157594  1
  O  O47  1  1.25769964  0.83333333  0.80157594  1
  O  O48  1  0.24230036  -0.00000000  0.19842406  1
  O  O49  1  0.24230036  -0.00000000  0.69842406  1
  O  O50  1  0.24230036  0.33333333  0.19842406  1
  O  O51  1  0.24230036  0.33333333  0.69842406  1
  O  O52  1  0.24230036  0.66666667  0.19842406  1
  O  O53  1  0.24230036  0.66666667  0.69842406  1
  O  O54  1  0.74230036  0.16666667  0.19842406  1
  O  O55  1  0.74230036  0.16666667  0.69842406  1
  O  O56  1  0.74230036  0.50000000  0.19842406  1
  O  O57  1  0.74230036  0.50000000  0.69842406  1
  O  O58  1  0.74230036  0.83333333  0.19842406  1
  O  O59  1  0.74230036  0.83333333  0.69842406  1
  O  O60  1  0.36881579  -0.00000000  0.43409217  1
  O  O61  1  0.36881579  -0.00000000  0.93409217  1
  O  O62  1  0.36881579  0.33333333  0.43409217  1
  O  O63  1  0.36881579  0.33333333  0.93409217  1
  O  O64  1  0.36881579  0.66666667  0.43409217  1
  O  O65  1  0.36881579  0.66666667  0.93409217  1
  O  O66  1  0.86881579  0.16666667  0.43409217  1
  O  O67  1  0.86881579  0.16666667  0.93409217  1
  O  O68  1  0.86881579  0.50000000  0.43409217  1
  O  O69  1  0.86881579  0.50000000  0.93409217  1
  O  O70  1  0.86881579  0.83333333  0.43409217  1
  O  O71  1  0.86881579  0.83333333  0.93409217  1
  O  O72  1  0.10207786  -0.00000000  0.37204682  1
  O  O73  1  0.10207786  -0.00000000  0.87204682  1
  O  O74  1  0.10207786  0.33333333  0.37204682  1
  O  O75  1  0.10207786  0.33333333  0.87204682  1
  O  O76  1  0.10207786  0.66666667  0.37204682  1
  O  O77  1  0.10207786  0.66666667  0.87204682  1
  O  O78  1  0.60207786  0.16666667  0.37204682  1
  O  O79  1  0.60207786  0.16666667  0.87204682  1
  O  O80  1  0.60207786  0.50000000  0.37204682  1
  O  O81  1  0.60207786  0.50000000  0.87204682  1
  O  O82  1  0.60207786  0.83333333  0.37204682  1
  O  O83  1  0.60207786  0.83333333  0.87204682  1
  O  O84  1  0.63118421  -0.00000000  0.06590783  1
  O  O85  1  0.63118421  -0.00000000  0.56590783  1
  O  O86  1  0.63118421  0.33333333  0.06590783  1
  O  O87  1  0.63118421  0.33333333  0.56590783  1
  O  O88  1  0.63118421  0.66666667  0.06590783  1
  O  O89  1  0.63118421  0.66666667  0.56590783  1
  O  O90  1  1.13118421  0.16666667  0.06590783  1
  O  O91  1  1.13118421  0.16666667  0.56590783  1
  O  O92  1  1.13118421  0.50000000  0.06590783  1
  O  O93  1  1.13118421  0.50000000  0.56590783  1
  O  O94  1  1.13118421  0.83333333  0.06590783  1
  O  O95  1  1.13118421  0.83333333  0.56590783  1
  O  O96  1  0.89792214  -0.00000000  0.12795318  1
  O  O97  1  0.89792214  -0.00000000  0.62795318  1
  O  O98  1  0.89792214  0.33333333  0.12795318  1
  O  O99  1  0.89792214  0.33333333  0.62795318  1
  O  O100  1  0.89792214  0.66666667  0.12795318  1
  O  O101  1  0.89792214  0.66666667  0.62795318  1
  O  O102  1  1.39792214  0.16666667  0.12795318  1
  O  O103  1  1.39792214  0.16666667  0.62795318  1
  O  O104  1  1.39792214  0.50000000  0.12795318  1
  O  O105  1  1.39792214  0.50000000  0.62795318  1
  O  O106  1  1.39792214  0.83333333  0.12795318  1
  O  O107  1  1.39792214  0.83333333  0.62795318  1
