# generated using pymatgen
data_K2Na4Be2O5
_symmetry_space_group_name_H-M   'P 1'
_cell_length_a   17.79517987
_cell_length_b   17.79517987
_cell_length_c   19.75879220
_cell_angle_alpha   90.00000000
_cell_angle_beta   90.00000000
_cell_angle_gamma   90.00000000
_symmetry_Int_Tables_number   1
_chemical_formula_structural   K2Na4Be2O5
_chemical_formula_sum   'K72 Na144 Be72 O180'
_cell_volume   6256.98563726
_cell_formula_units_Z   36
loop_
 _symmetry_equiv_pos_site_id
 _symmetry_equiv_pos_as_xyz
  1  'x, y, z'
loop_
 _atom_site_type_symbol
 _atom_site_label
 _atom_site_symmetry_multiplicity
 _atom_site_fract_x
 _atom_site_fract_y
 _atom_site_fract_z
 _atom_site_occupancy
  K  K0  1  0.10636944  0.10636944  0.00000000  1
  K  K1  1  0.10636944  0.10636944  0.50000000  1
  K  K2  1  0.10636944  0.43970277  0.00000000  1
  K  K3  1  0.10636944  0.43970277  0.50000000  1
  K  K4  1  0.10636944  0.77303610  0.00000000  1
  K  K5  1  0.10636944  0.77303610  0.50000000  1
  K  K6  1  0.43970277  0.10636944  0.00000000  1
  K  K7  1  0.43970277  0.10636944  0.50000000  1
  K  K8  1  0.43970277  0.43970277  0.00000000  1
  K  K9  1  0.43970277  0.43970277  0.50000000  1
  K  K10  1  0.43970277  0.77303610  0.00000000  1
  K  K11  1  0.43970277  0.77303610  0.50000000  1
  K  K12  1  0.77303610  0.10636944  0.00000000  1
  K  K13  1  0.77303610  0.10636944  0.50000000  1
  K  K14  1  0.77303610  0.43970277  0.00000000  1
  K  K15  1  0.77303610  0.43970277  0.50000000  1
  K  K16  1  0.77303610  0.77303610  0.00000000  1
  K  K17  1  0.77303610  0.77303610  0.50000000  1
  K  K18  1  0.06029723  0.27303610  0.25000000  1
  K  K19  1  0.06029723  0.27303610  0.75000000  1
  K  K20  1  0.06029723  0.60636944  0.25000000  1
  K  K21  1  0.06029723  0.60636944  0.75000000  1
  K  K22  1  0.06029723  0.93970277  0.25000000  1
  K  K23  1  0.06029723  0.93970277  0.75000000  1
  K  K24  1  0.39363056  0.27303610  0.25000000  1
  K  K25  1  0.39363056  0.27303610  0.75000000  1
  K  K26  1  0.39363056  0.60636944  0.25000000  1
  K  K27  1  0.39363056  0.60636944  0.75000000  1
  K  K28  1  0.39363056  0.93970277  0.25000000  1
  K  K29  1  0.39363056  0.93970277  0.75000000  1
  K  K30  1  0.72696390  0.27303610  0.25000000  1
  K  K31  1  0.72696390  0.27303610  0.75000000  1
  K  K32  1  0.72696390  0.60636944  0.25000000  1
  K  K33  1  0.72696390  0.60636944  0.75000000  1
  K  K34  1  0.72696390  0.93970277  0.25000000  1
  K  K35  1  0.72696390  0.93970277  0.75000000  1
  K  K36  1  0.27303610  0.06029723  0.25000000  1
  K  K37  1  0.27303610  0.06029723  0.75000000  1
  K  K38  1  0.27303610  0.39363056  0.25000000  1
  K  K39  1  0.27303610  0.39363056  0.75000000  1
  K  K40  1  0.27303610  0.72696390  0.25000000  1
  K  K41  1  0.27303610  0.72696390  0.75000000  1
  K  K42  1  0.60636944  0.06029723  0.25000000  1
  K  K43  1  0.60636944  0.06029723  0.75000000  1
  K  K44  1  0.60636944  0.39363056  0.25000000  1
  K  K45  1  0.60636944  0.39363056  0.75000000  1
  K  K46  1  0.60636944  0.72696390  0.25000000  1
  K  K47  1  0.60636944  0.72696390  0.75000000  1
  K  K48  1  0.93970277  0.06029723  0.25000000  1
  K  K49  1  0.93970277  0.06029723  0.75000000  1
  K  K50  1  0.93970277  0.39363056  0.25000000  1
  K  K51  1  0.93970277  0.39363056  0.75000000  1
  K  K52  1  0.93970277  0.72696390  0.25000000  1
  K  K53  1  0.93970277  0.72696390  0.75000000  1
  K  K54  1  0.22696390  0.22696390  0.00000000  1
  K  K55  1  0.22696390  0.22696390  0.50000000  1
  K  K56  1  0.22696390  0.56029723  0.00000000  1
  K  K57  1  0.22696390  0.56029723  0.50000000  1
  K  K58  1  0.22696390  0.89363056  0.00000000  1
  K  K59  1  0.22696390  0.89363056  0.50000000  1
  K  K60  1  0.56029723  0.22696390  0.00000000  1
  K  K61  1  0.56029723  0.22696390  0.50000000  1
  K  K62  1  0.56029723  0.56029723  0.00000000  1
  K  K63  1  0.56029723  0.56029723  0.50000000  1
  K  K64  1  0.56029723  0.89363056  0.00000000  1
  K  K65  1  0.56029723  0.89363056  0.50000000  1
  K  K66  1  0.89363056  0.22696390  0.00000000  1
  K  K67  1  0.89363056  0.22696390  0.50000000  1
  K  K68  1  0.89363056  0.56029723  0.00000000  1
  K  K69  1  0.89363056  0.56029723  0.50000000  1
  K  K70  1  0.89363056  0.89363056  0.00000000  1
  K  K71  1  0.89363056  0.89363056  0.50000000  1
  Na  Na72  1  0.16666667  0.00000000  0.37500000  1
  Na  Na73  1  0.16666667  0.00000000  0.87500000  1
  Na  Na74  1  0.16666667  0.33333333  0.37500000  1
  Na  Na75  1  0.16666667  0.33333333  0.87500000  1
  Na  Na76  1  0.16666667  0.66666667  0.37500000  1
  Na  Na77  1  0.16666667  0.66666667  0.87500000  1
  Na  Na78  1  0.50000000  0.00000000  0.37500000  1
  Na  Na79  1  0.50000000  0.00000000  0.87500000  1
  Na  Na80  1  0.50000000  0.33333333  0.37500000  1
  Na  Na81  1  0.50000000  0.33333333  0.87500000  1
  Na  Na82  1  0.50000000  0.66666667  0.37500000  1
  Na  Na83  1  0.50000000  0.66666667  0.87500000  1
  Na  Na84  1  0.83333333  0.00000000  0.37500000  1
  Na  Na85  1  0.83333333  0.00000000  0.87500000  1
  Na  Na86  1  0.83333333  0.33333333  0.37500000  1
  Na  Na87  1  0.83333333  0.33333333  0.87500000  1
  Na  Na88  1  0.83333333  0.66666667  0.37500000  1
  Na  Na89  1  0.83333333  0.66666667  0.87500000  1
  Na  Na90  1  0.16666667  0.00000000  0.12500000  1
  Na  Na91  1  0.16666667  0.00000000  0.62500000  1
  Na  Na92  1  0.16666667  0.33333333  0.12500000  1
  Na  Na93  1  0.16666667  0.33333333  0.62500000  1
  Na  Na94  1  0.16666667  0.66666667  0.12500000  1
  Na  Na95  1  0.16666667  0.66666667  0.62500000  1
  Na  Na96  1  0.50000000  0.00000000  0.12500000  1
  Na  Na97  1  0.50000000  0.00000000  0.62500000  1
  Na  Na98  1  0.50000000  0.33333333  0.12500000  1
  Na  Na99  1  0.50000000  0.33333333  0.62500000  1
  Na  Na100  1  0.50000000  0.66666667  0.12500000  1
  Na  Na101  1  0.50000000  0.66666667  0.62500000  1
  Na  Na102  1  0.83333333  0.00000000  0.12500000  1
  Na  Na103  1  0.83333333  0.00000000  0.62500000  1
  Na  Na104  1  0.83333333  0.33333333  0.12500000  1
  Na  Na105  1  0.83333333  0.33333333  0.62500000  1
  Na  Na106  1  0.83333333  0.66666667  0.12500000  1
  Na  Na107  1  0.83333333  0.66666667  0.62500000  1
  Na  Na108  1  0.00000000  0.16666667  0.37500000  1
  Na  Na109  1  0.00000000  0.16666667  0.87500000  1
  Na  Na110  1  0.00000000  0.50000000  0.37500000  1
  Na  Na111  1  0.00000000  0.50000000  0.87500000  1
  Na  Na112  1  0.00000000  0.83333333  0.37500000  1
  Na  Na113  1  0.00000000  0.83333333  0.87500000  1
  Na  Na114  1  0.33333333  0.16666667  0.37500000  1
  Na  Na115  1  0.33333333  0.16666667  0.87500000  1
  Na  Na116  1  0.33333333  0.50000000  0.37500000  1
  Na  Na117  1  0.33333333  0.50000000  0.87500000  1
  Na  Na118  1  0.33333333  0.83333333  0.37500000  1
  Na  Na119  1  0.33333333  0.83333333  0.87500000  1
  Na  Na120  1  0.66666667  0.16666667  0.37500000  1
  Na  Na121  1  0.66666667  0.16666667  0.87500000  1
  Na  Na122  1  0.66666667  0.50000000  0.37500000  1
  Na  Na123  1  0.66666667  0.50000000  0.87500000  1
  Na  Na124  1  0.66666667  0.83333333  0.37500000  1
  Na  Na125  1  0.66666667  0.83333333  0.87500000  1
  Na  Na126  1  0.00000000  0.16666667  0.12500000  1
  Na  Na127  1  0.00000000  0.16666667  0.62500000  1
  Na  Na128  1  0.00000000  0.50000000  0.12500000  1
  Na  Na129  1  0.00000000  0.50000000  0.62500000  1
  Na  Na130  1  0.00000000  0.83333333  0.12500000  1
  Na  Na131  1  0.00000000  0.83333333  0.62500000  1
  Na  Na132  1  0.33333333  0.16666667  0.12500000  1
  Na  Na133  1  0.33333333  0.16666667  0.62500000  1
  Na  Na134  1  0.33333333  0.50000000  0.12500000  1
  Na  Na135  1  0.33333333  0.50000000  0.62500000  1
  Na  Na136  1  0.33333333  0.83333333  0.12500000  1
  Na  Na137  1  0.33333333  0.83333333  0.62500000  1
  Na  Na138  1  0.66666667  0.16666667  0.12500000  1
  Na  Na139  1  0.66666667  0.16666667  0.62500000  1
  Na  Na140  1  0.66666667  0.50000000  0.12500000  1
  Na  Na141  1  0.66666667  0.50000000  0.62500000  1
  Na  Na142  1  0.66666667  0.83333333  0.12500000  1
  Na  Na143  1  0.66666667  0.83333333  0.62500000  1
  Na  Na144  1  0.00000000  0.00000000  0.11270698  1
  Na  Na145  1  0.00000000  0.00000000  0.61270698  1
  Na  Na146  1  0.00000000  0.33333333  0.11270698  1
  Na  Na147  1  0.00000000  0.33333333  0.61270698  1
  Na  Na148  1  0.00000000  0.66666667  0.11270698  1
  Na  Na149  1  0.00000000  0.66666667  0.61270698  1
  Na  Na150  1  0.33333333  0.00000000  0.11270698  1
  Na  Na151  1  0.33333333  0.00000000  0.61270698  1
  Na  Na152  1  0.33333333  0.33333333  0.11270698  1
  Na  Na153  1  0.33333333  0.33333333  0.61270698  1
  Na  Na154  1  0.33333333  0.66666667  0.11270698  1
  Na  Na155  1  0.33333333  0.66666667  0.61270698  1
  Na  Na156  1  0.66666667  0.00000000  0.11270698  1
  Na  Na157  1  0.66666667  0.00000000  0.61270698  1
  Na  Na158  1  0.66666667  0.33333333  0.11270698  1
  Na  Na159  1  0.66666667  0.33333333  0.61270698  1
  Na  Na160  1  0.66666667  0.66666667  0.11270698  1
  Na  Na161  1  0.66666667  0.66666667  0.61270698  1
  Na  Na162  1  0.16666667  0.16666667  0.36270698  1
  Na  Na163  1  0.16666667  0.16666667  0.86270698  1
  Na  Na164  1  0.16666667  0.50000000  0.36270698  1
  Na  Na165  1  0.16666667  0.50000000  0.86270698  1
  Na  Na166  1  0.16666667  0.83333333  0.36270698  1
  Na  Na167  1  0.16666667  0.83333333  0.86270698  1
  Na  Na168  1  0.50000000  0.16666667  0.36270698  1
  Na  Na169  1  0.50000000  0.16666667  0.86270698  1
  Na  Na170  1  0.50000000  0.50000000  0.36270698  1
  Na  Na171  1  0.50000000  0.50000000  0.86270698  1
  Na  Na172  1  0.50000000  0.83333333  0.36270698  1
  Na  Na173  1  0.50000000  0.83333333  0.86270698  1
  Na  Na174  1  0.83333333  0.16666667  0.36270698  1
  Na  Na175  1  0.83333333  0.16666667  0.86270698  1
  Na  Na176  1  0.83333333  0.50000000  0.36270698  1
  Na  Na177  1  0.83333333  0.50000000  0.86270698  1
  Na  Na178  1  0.83333333  0.83333333  0.36270698  1
  Na  Na179  1  0.83333333  0.83333333  0.86270698  1
  Na  Na180  1  0.16666667  0.16666667  0.13729302  1
  Na  Na181  1  0.16666667  0.16666667  0.63729302  1
  Na  Na182  1  0.16666667  0.50000000  0.13729302  1
  Na  Na183  1  0.16666667  0.50000000  0.63729302  1
  Na  Na184  1  0.16666667  0.83333333  0.13729302  1
  Na  Na185  1  0.16666667  0.83333333  0.63729302  1
  Na  Na186  1  0.50000000  0.16666667  0.13729302  1
  Na  Na187  1  0.50000000  0.16666667  0.63729302  1
  Na  Na188  1  0.50000000  0.50000000  0.13729302  1
  Na  Na189  1  0.50000000  0.50000000  0.63729302  1
  Na  Na190  1  0.50000000  0.83333333  0.13729302  1
  Na  Na191  1  0.50000000  0.83333333  0.63729302  1
  Na  Na192  1  0.83333333  0.16666667  0.13729302  1
  Na  Na193  1  0.83333333  0.16666667  0.63729302  1
  Na  Na194  1  0.83333333  0.50000000  0.13729302  1
  Na  Na195  1  0.83333333  0.50000000  0.63729302  1
  Na  Na196  1  0.83333333  0.83333333  0.13729302  1
  Na  Na197  1  0.83333333  0.83333333  0.63729302  1
  Na  Na198  1  0.00000000  0.00000000  0.38729302  1
  Na  Na199  1  0.00000000  0.00000000  0.88729302  1
  Na  Na200  1  0.00000000  0.33333333  0.38729302  1
  Na  Na201  1  0.00000000  0.33333333  0.88729302  1
  Na  Na202  1  0.00000000  0.66666667  0.38729302  1
  Na  Na203  1  0.00000000  0.66666667  0.88729302  1
  Na  Na204  1  0.33333333  0.00000000  0.38729302  1
  Na  Na205  1  0.33333333  0.00000000  0.88729302  1
  Na  Na206  1  0.33333333  0.33333333  0.38729302  1
  Na  Na207  1  0.33333333  0.33333333  0.88729302  1
  Na  Na208  1  0.33333333  0.66666667  0.38729302  1
  Na  Na209  1  0.33333333  0.66666667  0.88729302  1
  Na  Na210  1  0.66666667  0.00000000  0.38729302  1
  Na  Na211  1  0.66666667  0.00000000  0.88729302  1
  Na  Na212  1  0.66666667  0.33333333  0.38729302  1
  Na  Na213  1  0.66666667  0.33333333  0.88729302  1
  Na  Na214  1  0.66666667  0.66666667  0.38729302  1
  Na  Na215  1  0.66666667  0.66666667  0.88729302  1
  Be  Be216  1  0.22924305  0.22924305  0.25000000  1
  Be  Be217  1  0.22924305  0.22924305  0.75000000  1
  Be  Be218  1  0.22924305  0.56257639  0.25000000  1
  Be  Be219  1  0.22924305  0.56257639  0.75000000  1
  Be  Be220  1  0.22924305  0.89590972  0.25000000  1
  Be  Be221  1  0.22924305  0.89590972  0.75000000  1
  Be  Be222  1  0.56257639  0.22924305  0.25000000  1
  Be  Be223  1  0.56257639  0.22924305  0.75000000  1
  Be  Be224  1  0.56257639  0.56257639  0.25000000  1
  Be  Be225  1  0.56257639  0.56257639  0.75000000  1
  Be  Be226  1  0.56257639  0.89590972  0.25000000  1
  Be  Be227  1  0.56257639  0.89590972  0.75000000  1
  Be  Be228  1  0.89590972  0.22924305  0.25000000  1
  Be  Be229  1  0.89590972  0.22924305  0.75000000  1
  Be  Be230  1  0.89590972  0.56257639  0.25000000  1
  Be  Be231  1  0.89590972  0.56257639  0.75000000  1
  Be  Be232  1  0.89590972  0.89590972  0.25000000  1
  Be  Be233  1  0.89590972  0.89590972  0.75000000  1
  Be  Be234  1  0.10409028  0.10409028  0.25000000  1
  Be  Be235  1  0.10409028  0.10409028  0.75000000  1
  Be  Be236  1  0.10409028  0.43742361  0.25000000  1
  Be  Be237  1  0.10409028  0.43742361  0.75000000  1
  Be  Be238  1  0.10409028  0.77075695  0.25000000  1
  Be  Be239  1  0.10409028  0.77075695  0.75000000  1
  Be  Be240  1  0.43742361  0.10409028  0.25000000  1
  Be  Be241  1  0.43742361  0.10409028  0.75000000  1
  Be  Be242  1  0.43742361  0.43742361  0.25000000  1
  Be  Be243  1  0.43742361  0.43742361  0.75000000  1
  Be  Be244  1  0.43742361  0.77075695  0.25000000  1
  Be  Be245  1  0.43742361  0.77075695  0.75000000  1
  Be  Be246  1  0.77075695  0.10409028  0.25000000  1
  Be  Be247  1  0.77075695  0.10409028  0.75000000  1
  Be  Be248  1  0.77075695  0.43742361  0.25000000  1
  Be  Be249  1  0.77075695  0.43742361  0.75000000  1
  Be  Be250  1  0.77075695  0.77075695  0.25000000  1
  Be  Be251  1  0.77075695  0.77075695  0.75000000  1
  Be  Be252  1  0.27075695  0.06257639  0.00000000  1
  Be  Be253  1  0.27075695  0.06257639  0.50000000  1
  Be  Be254  1  0.27075695  0.39590972  0.00000000  1
  Be  Be255  1  0.27075695  0.39590972  0.50000000  1
  Be  Be256  1  0.27075695  0.72924305  0.00000000  1
  Be  Be257  1  0.27075695  0.72924305  0.50000000  1
  Be  Be258  1  0.60409028  0.06257639  0.00000000  1
  Be  Be259  1  0.60409028  0.06257639  0.50000000  1
  Be  Be260  1  0.60409028  0.39590972  0.00000000  1
  Be  Be261  1  0.60409028  0.39590972  0.50000000  1
  Be  Be262  1  0.60409028  0.72924305  0.00000000  1
  Be  Be263  1  0.60409028  0.72924305  0.50000000  1
  Be  Be264  1  0.93742361  0.06257639  0.00000000  1
  Be  Be265  1  0.93742361  0.06257639  0.50000000  1
  Be  Be266  1  0.93742361  0.39590972  0.00000000  1
  Be  Be267  1  0.93742361  0.39590972  0.50000000  1
  Be  Be268  1  0.93742361  0.72924305  0.00000000  1
  Be  Be269  1  0.93742361  0.72924305  0.50000000  1
  Be  Be270  1  0.06257639  0.27075695  0.00000000  1
  Be  Be271  1  0.06257639  0.27075695  0.50000000  1
  Be  Be272  1  0.06257639  0.60409028  0.00000000  1
  Be  Be273  1  0.06257639  0.60409028  0.50000000  1
  Be  Be274  1  0.06257639  0.93742361  0.00000000  1
  Be  Be275  1  0.06257639  0.93742361  0.50000000  1
  Be  Be276  1  0.39590972  0.27075695  0.00000000  1
  Be  Be277  1  0.39590972  0.27075695  0.50000000  1
  Be  Be278  1  0.39590972  0.60409028  0.00000000  1
  Be  Be279  1  0.39590972  0.60409028  0.50000000  1
  Be  Be280  1  0.39590972  0.93742361  0.00000000  1
  Be  Be281  1  0.39590972  0.93742361  0.50000000  1
  Be  Be282  1  0.72924305  0.27075695  0.00000000  1
  Be  Be283  1  0.72924305  0.27075695  0.50000000  1
  Be  Be284  1  0.72924305  0.60409028  0.00000000  1
  Be  Be285  1  0.72924305  0.60409028  0.50000000  1
  Be  Be286  1  0.72924305  0.93742361  0.00000000  1
  Be  Be287  1  0.72924305  0.93742361  0.50000000  1
  O  O288  1  0.07528719  0.07528719  0.17996776  1
  O  O289  1  0.07528719  0.07528719  0.67996776  1
  O  O290  1  0.07528719  0.40862052  0.17996776  1
  O  O291  1  0.07528719  0.40862052  0.67996776  1
  O  O292  1  0.07528719  0.74195386  0.17996776  1
  O  O293  1  0.07528719  0.74195386  0.67996776  1
  O  O294  1  0.40862052  0.07528719  0.17996776  1
  O  O295  1  0.40862052  0.07528719  0.67996776  1
  O  O296  1  0.40862052  0.40862052  0.17996776  1
  O  O297  1  0.40862052  0.40862052  0.67996776  1
  O  O298  1  0.40862052  0.74195386  0.17996776  1
  O  O299  1  0.40862052  0.74195386  0.67996776  1
  O  O300  1  0.74195386  0.07528719  0.17996776  1
  O  O301  1  0.74195386  0.07528719  0.67996776  1
  O  O302  1  0.74195386  0.40862052  0.17996776  1
  O  O303  1  0.74195386  0.40862052  0.67996776  1
  O  O304  1  0.74195386  0.74195386  0.17996776  1
  O  O305  1  0.74195386  0.74195386  0.67996776  1
  O  O306  1  0.09137948  0.24195386  0.42996776  1
  O  O307  1  0.09137948  0.24195386  0.92996776  1
  O  O308  1  0.09137948  0.57528719  0.42996776  1
  O  O309  1  0.09137948  0.57528719  0.92996776  1
  O  O310  1  0.09137948  0.90862052  0.42996776  1
  O  O311  1  0.09137948  0.90862052  0.92996776  1
  O  O312  1  0.42471281  0.24195386  0.42996776  1
  O  O313  1  0.42471281  0.24195386  0.92996776  1
  O  O314  1  0.42471281  0.57528719  0.42996776  1
  O  O315  1  0.42471281  0.57528719  0.92996776  1
  O  O316  1  0.42471281  0.90862052  0.42996776  1
  O  O317  1  0.42471281  0.90862052  0.92996776  1
  O  O318  1  0.75804614  0.24195386  0.42996776  1
  O  O319  1  0.75804614  0.24195386  0.92996776  1
  O  O320  1  0.75804614  0.57528719  0.42996776  1
  O  O321  1  0.75804614  0.57528719  0.92996776  1
  O  O322  1  0.75804614  0.90862052  0.42996776  1
  O  O323  1  0.75804614  0.90862052  0.92996776  1
  O  O324  1  0.25804614  0.25804614  0.32003224  1
  O  O325  1  0.25804614  0.25804614  0.82003224  1
  O  O326  1  0.25804614  0.59137948  0.32003224  1
  O  O327  1  0.25804614  0.59137948  0.82003224  1
  O  O328  1  0.25804614  0.92471281  0.32003224  1
  O  O329  1  0.25804614  0.92471281  0.82003224  1
  O  O330  1  0.59137948  0.25804614  0.32003224  1
  O  O331  1  0.59137948  0.25804614  0.82003224  1
  O  O332  1  0.59137948  0.59137948  0.32003224  1
  O  O333  1  0.59137948  0.59137948  0.82003224  1
  O  O334  1  0.59137948  0.92471281  0.32003224  1
  O  O335  1  0.59137948  0.92471281  0.82003224  1
  O  O336  1  0.92471281  0.25804614  0.32003224  1
  O  O337  1  0.92471281  0.25804614  0.82003224  1
  O  O338  1  0.92471281  0.59137948  0.32003224  1
  O  O339  1  0.92471281  0.59137948  0.82003224  1
  O  O340  1  0.92471281  0.92471281  0.32003224  1
  O  O341  1  0.92471281  0.92471281  0.82003224  1
  O  O342  1  0.24195386  0.09137948  0.07003224  1
  O  O343  1  0.24195386  0.09137948  0.57003224  1
  O  O344  1  0.24195386  0.42471281  0.07003224  1
  O  O345  1  0.24195386  0.42471281  0.57003224  1
  O  O346  1  0.24195386  0.75804614  0.07003224  1
  O  O347  1  0.24195386  0.75804614  0.57003224  1
  O  O348  1  0.57528719  0.09137948  0.07003224  1
  O  O349  1  0.57528719  0.09137948  0.57003224  1
  O  O350  1  0.57528719  0.42471281  0.07003224  1
  O  O351  1  0.57528719  0.42471281  0.57003224  1
  O  O352  1  0.57528719  0.75804614  0.07003224  1
  O  O353  1  0.57528719  0.75804614  0.57003224  1
  O  O354  1  0.90862052  0.09137948  0.07003224  1
  O  O355  1  0.90862052  0.09137948  0.57003224  1
  O  O356  1  0.90862052  0.42471281  0.07003224  1
  O  O357  1  0.90862052  0.42471281  0.57003224  1
  O  O358  1  0.90862052  0.75804614  0.07003224  1
  O  O359  1  0.90862052  0.75804614  0.57003224  1
  O  O360  1  0.09137948  0.24195386  0.07003224  1
  O  O361  1  0.09137948  0.24195386  0.57003224  1
  O  O362  1  0.09137948  0.57528719  0.07003224  1
  O  O363  1  0.09137948  0.57528719  0.57003224  1
  O  O364  1  0.09137948  0.90862052  0.07003224  1
  O  O365  1  0.09137948  0.90862052  0.57003224  1
  O  O366  1  0.42471281  0.24195386  0.07003224  1
  O  O367  1  0.42471281  0.24195386  0.57003224  1
  O  O368  1  0.42471281  0.57528719  0.07003224  1
  O  O369  1  0.42471281  0.57528719  0.57003224  1
  O  O370  1  0.42471281  0.90862052  0.07003224  1
  O  O371  1  0.42471281  0.90862052  0.57003224  1
  O  O372  1  0.75804614  0.24195386  0.07003224  1
  O  O373  1  0.75804614  0.24195386  0.57003224  1
  O  O374  1  0.75804614  0.57528719  0.07003224  1
  O  O375  1  0.75804614  0.57528719  0.57003224  1
  O  O376  1  0.75804614  0.90862052  0.07003224  1
  O  O377  1  0.75804614  0.90862052  0.57003224  1
  O  O378  1  0.07528719  0.07528719  0.32003224  1
  O  O379  1  0.07528719  0.07528719  0.82003224  1
  O  O380  1  0.07528719  0.40862052  0.32003224  1
  O  O381  1  0.07528719  0.40862052  0.82003224  1
  O  O382  1  0.07528719  0.74195386  0.32003224  1
  O  O383  1  0.07528719  0.74195386  0.82003224  1
  O  O384  1  0.40862052  0.07528719  0.32003224  1
  O  O385  1  0.40862052  0.07528719  0.82003224  1
  O  O386  1  0.40862052  0.40862052  0.32003224  1
  O  O387  1  0.40862052  0.40862052  0.82003224  1
  O  O388  1  0.40862052  0.74195386  0.32003224  1
  O  O389  1  0.40862052  0.74195386  0.82003224  1
  O  O390  1  0.74195386  0.07528719  0.32003224  1
  O  O391  1  0.74195386  0.07528719  0.82003224  1
  O  O392  1  0.74195386  0.40862052  0.32003224  1
  O  O393  1  0.74195386  0.40862052  0.82003224  1
  O  O394  1  0.74195386  0.74195386  0.32003224  1
  O  O395  1  0.74195386  0.74195386  0.82003224  1
  O  O396  1  0.25804614  0.25804614  0.17996776  1
  O  O397  1  0.25804614  0.25804614  0.67996776  1
  O  O398  1  0.25804614  0.59137948  0.17996776  1
  O  O399  1  0.25804614  0.59137948  0.67996776  1
  O  O400  1  0.25804614  0.92471281  0.17996776  1
  O  O401  1  0.25804614  0.92471281  0.67996776  1
  O  O402  1  0.59137948  0.25804614  0.17996776  1
  O  O403  1  0.59137948  0.25804614  0.67996776  1
  O  O404  1  0.59137948  0.59137948  0.17996776  1
  O  O405  1  0.59137948  0.59137948  0.67996776  1
  O  O406  1  0.59137948  0.92471281  0.17996776  1
  O  O407  1  0.59137948  0.92471281  0.67996776  1
  O  O408  1  0.92471281  0.25804614  0.17996776  1
  O  O409  1  0.92471281  0.25804614  0.67996776  1
  O  O410  1  0.92471281  0.59137948  0.17996776  1
  O  O411  1  0.92471281  0.59137948  0.67996776  1
  O  O412  1  0.92471281  0.92471281  0.17996776  1
  O  O413  1  0.92471281  0.92471281  0.67996776  1
  O  O414  1  0.00000000  0.00000000  0.00000000  1
  O  O415  1  0.00000000  0.00000000  0.50000000  1
  O  O416  1  0.00000000  0.33333333  0.00000000  1
  O  O417  1  0.00000000  0.33333333  0.50000000  1
  O  O418  1  0.00000000  0.66666667  0.00000000  1
  O  O419  1  0.00000000  0.66666667  0.50000000  1
  O  O420  1  0.33333333  0.00000000  0.00000000  1
  O  O421  1  0.33333333  0.00000000  0.50000000  1
  O  O422  1  0.33333333  0.33333333  0.00000000  1
  O  O423  1  0.33333333  0.33333333  0.50000000  1
  O  O424  1  0.33333333  0.66666667  0.00000000  1
  O  O425  1  0.33333333  0.66666667  0.50000000  1
  O  O426  1  0.66666667  0.00000000  0.00000000  1
  O  O427  1  0.66666667  0.00000000  0.50000000  1
  O  O428  1  0.66666667  0.33333333  0.00000000  1
  O  O429  1  0.66666667  0.33333333  0.50000000  1
  O  O430  1  0.66666667  0.66666667  0.00000000  1
  O  O431  1  0.66666667  0.66666667  0.50000000  1
  O  O432  1  0.24195386  0.09137948  0.42996776  1
  O  O433  1  0.24195386  0.09137948  0.92996776  1
  O  O434  1  0.24195386  0.42471281  0.42996776  1
  O  O435  1  0.24195386  0.42471281  0.92996776  1
  O  O436  1  0.24195386  0.75804614  0.42996776  1
  O  O437  1  0.24195386  0.75804614  0.92996776  1
  O  O438  1  0.57528719  0.09137948  0.42996776  1
  O  O439  1  0.57528719  0.09137948  0.92996776  1
  O  O440  1  0.57528719  0.42471281  0.42996776  1
  O  O441  1  0.57528719  0.42471281  0.92996776  1
  O  O442  1  0.57528719  0.75804614  0.42996776  1
  O  O443  1  0.57528719  0.75804614  0.92996776  1
  O  O444  1  0.90862052  0.09137948  0.42996776  1
  O  O445  1  0.90862052  0.09137948  0.92996776  1
  O  O446  1  0.90862052  0.42471281  0.42996776  1
  O  O447  1  0.90862052  0.42471281  0.92996776  1
  O  O448  1  0.90862052  0.75804614  0.42996776  1
  O  O449  1  0.90862052  0.75804614  0.92996776  1
  O  O450  1  0.16666667  0.16666667  0.25000000  1
  O  O451  1  0.16666667  0.16666667  0.75000000  1
  O  O452  1  0.16666667  0.50000000  0.25000000  1
  O  O453  1  0.16666667  0.50000000  0.75000000  1
  O  O454  1  0.16666667  0.83333333  0.25000000  1
  O  O455  1  0.16666667  0.83333333  0.75000000  1
  O  O456  1  0.50000000  0.16666667  0.25000000  1
  O  O457  1  0.50000000  0.16666667  0.75000000  1
  O  O458  1  0.50000000  0.50000000  0.25000000  1
  O  O459  1  0.50000000  0.50000000  0.75000000  1
  O  O460  1  0.50000000  0.83333333  0.25000000  1
  O  O461  1  0.50000000  0.83333333  0.75000000  1
  O  O462  1  0.83333333  0.16666667  0.25000000  1
  O  O463  1  0.83333333  0.16666667  0.75000000  1
  O  O464  1  0.83333333  0.50000000  0.25000000  1
  O  O465  1  0.83333333  0.50000000  0.75000000  1
  O  O466  1  0.83333333  0.83333333  0.25000000  1
  O  O467  1  0.83333333  0.83333333  0.75000000  1
