# generated using pymatgen
data_NaAg3O2
_symmetry_space_group_name_H-M   'P 1'
_cell_length_a   12.09114306
_cell_length_b   10.34248146
_cell_length_c   11.78261357
_cell_angle_alpha   90.00000000
_cell_angle_beta   90.00000000
_cell_angle_gamma   90.00000000
_symmetry_Int_Tables_number   1
_chemical_formula_structural   NaAg3O2
_chemical_formula_sum   'Na16 Ag48 O32'
_cell_volume   1473.44437520
_cell_formula_units_Z   16
loop_
 _symmetry_equiv_pos_site_id
 _symmetry_equiv_pos_as_xyz
  1  'x, y, z'
loop_
 _atom_site_type_symbol
 _atom_site_label
 _atom_site_symmetry_multiplicity
 _atom_site_fract_x
 _atom_site_fract_y
 _atom_site_fract_z
 _atom_site_occupancy
  Na  Na0  1  0.25000000  0.00000000  0.12500000  1
  Na  Na1  1  0.25000000  0.00000000  0.62500000  1
  Na  Na2  1  0.75000000  0.00000000  0.12500000  1
  Na  Na3  1  0.75000000  0.00000000  0.62500000  1
  Na  Na4  1  0.50000000  0.50000000  0.37500000  1
  Na  Na5  1  0.50000000  0.50000000  0.87500000  1
  Na  Na6  1  1.00000000  0.50000000  0.37500000  1
  Na  Na7  1  1.00000000  0.50000000  0.87500000  1
  Na  Na8  1  0.00000000  0.50000000  0.12500000  1
  Na  Na9  1  0.00000000  0.50000000  0.62500000  1
  Na  Na10  1  0.50000000  0.50000000  0.12500000  1
  Na  Na11  1  0.50000000  0.50000000  0.62500000  1
  Na  Na12  1  0.25000000  1.00000000  0.37500000  1
  Na  Na13  1  0.25000000  1.00000000  0.87500000  1
  Na  Na14  1  0.75000000  1.00000000  0.37500000  1
  Na  Na15  1  0.75000000  1.00000000  0.87500000  1
  Ag  Ag16  1  0.12500000  -0.25000000  0.12500000  1
  Ag  Ag17  1  0.12500000  -0.25000000  0.62500000  1
  Ag  Ag18  1  0.62500000  -0.25000000  0.12500000  1
  Ag  Ag19  1  0.62500000  -0.25000000  0.62500000  1
  Ag  Ag20  1  0.37500000  0.25000000  0.37500000  1
  Ag  Ag21  1  0.37500000  0.25000000  0.87500000  1
  Ag  Ag22  1  0.87500000  0.25000000  0.37500000  1
  Ag  Ag23  1  0.87500000  0.25000000  0.87500000  1
  Ag  Ag24  1  0.12500000  0.25000000  0.12500000  1
  Ag  Ag25  1  0.12500000  0.25000000  0.62500000  1
  Ag  Ag26  1  0.62500000  0.25000000  0.12500000  1
  Ag  Ag27  1  0.62500000  0.25000000  0.62500000  1
  Ag  Ag28  1  0.37500000  0.75000000  0.37500000  1
  Ag  Ag29  1  0.37500000  0.75000000  0.87500000  1
  Ag  Ag30  1  0.87500000  0.75000000  0.37500000  1
  Ag  Ag31  1  0.87500000  0.75000000  0.87500000  1
  Ag  Ag32  1  -0.12500000  0.25000000  0.12500000  1
  Ag  Ag33  1  -0.12500000  0.25000000  0.62500000  1
  Ag  Ag34  1  0.37500000  0.25000000  0.12500000  1
  Ag  Ag35  1  0.37500000  0.25000000  0.62500000  1
  Ag  Ag36  1  0.12500000  0.75000000  0.37500000  1
  Ag  Ag37  1  0.12500000  0.75000000  0.87500000  1
  Ag  Ag38  1  0.62500000  0.75000000  0.37500000  1
  Ag  Ag39  1  0.62500000  0.75000000  0.87500000  1
  Ag  Ag40  1  0.00000000  0.00000000  0.25000000  1
  Ag  Ag41  1  0.00000000  0.00000000  0.75000000  1
  Ag  Ag42  1  0.50000000  0.00000000  0.25000000  1
  Ag  Ag43  1  0.50000000  0.00000000  0.75000000  1
  Ag  Ag44  1  0.25000000  0.50000000  0.50000000  1
  Ag  Ag45  1  0.25000000  0.50000000  1.00000000  1
  Ag  Ag46  1  0.75000000  0.50000000  0.50000000  1
  Ag  Ag47  1  0.75000000  0.50000000  1.00000000  1
  Ag  Ag48  1  0.00000000  0.00000000  0.00000000  1
  Ag  Ag49  1  0.00000000  0.00000000  0.50000000  1
  Ag  Ag50  1  0.50000000  0.00000000  0.00000000  1
  Ag  Ag51  1  0.50000000  0.00000000  0.50000000  1
  Ag  Ag52  1  0.25000000  0.50000000  0.25000000  1
  Ag  Ag53  1  0.25000000  0.50000000  0.75000000  1
  Ag  Ag54  1  0.75000000  0.50000000  0.25000000  1
  Ag  Ag55  1  0.75000000  0.50000000  0.75000000  1
  Ag  Ag56  1  0.12500000  0.25000000  -0.12500000  1
  Ag  Ag57  1  0.12500000  0.25000000  0.37500000  1
  Ag  Ag58  1  0.62500000  0.25000000  -0.12500000  1
  Ag  Ag59  1  0.62500000  0.25000000  0.37500000  1
  Ag  Ag60  1  0.37500000  0.75000000  0.12500000  1
  Ag  Ag61  1  0.37500000  0.75000000  0.62500000  1
  Ag  Ag62  1  0.87500000  0.75000000  0.12500000  1
  Ag  Ag63  1  0.87500000  0.75000000  0.62500000  1
  O  O64  1  0.10497313  0.38974581  0.00000000  1
  O  O65  1  0.10497313  0.38974581  0.50000000  1
  O  O66  1  0.60497313  0.38974581  0.00000000  1
  O  O67  1  0.60497313  0.38974581  0.50000000  1
  O  O68  1  0.35497313  0.88974581  0.25000000  1
  O  O69  1  0.35497313  0.88974581  0.75000000  1
  O  O70  1  0.85497313  0.88974581  0.25000000  1
  O  O71  1  0.85497313  0.88974581  0.75000000  1
  O  O72  1  -0.10497313  0.38974581  0.25000000  1
  O  O73  1  -0.10497313  0.38974581  0.75000000  1
  O  O74  1  0.39502687  0.38974581  0.25000000  1
  O  O75  1  0.39502687  0.38974581  0.75000000  1
  O  O76  1  0.14502687  0.88974581  0.50000000  1
  O  O77  1  0.14502687  0.88974581  1.00000000  1
  O  O78  1  0.64502687  0.88974581  0.50000000  1
  O  O79  1  0.64502687  0.88974581  1.00000000  1
  O  O80  1  0.35497313  0.11025419  0.00000000  1
  O  O81  1  0.35497313  0.11025419  0.50000000  1
  O  O82  1  0.85497313  0.11025419  0.00000000  1
  O  O83  1  0.85497313  0.11025419  0.50000000  1
  O  O84  1  0.60497313  0.61025419  0.25000000  1
  O  O85  1  0.60497313  0.61025419  0.75000000  1
  O  O86  1  1.10497313  0.61025419  0.25000000  1
  O  O87  1  1.10497313  0.61025419  0.75000000  1
  O  O88  1  0.14502687  0.11025419  0.25000000  1
  O  O89  1  0.14502687  0.11025419  0.75000000  1
  O  O90  1  0.64502687  0.11025419  0.25000000  1
  O  O91  1  0.64502687  0.11025419  0.75000000  1
  O  O92  1  0.39502687  0.61025419  0.50000000  1
  O  O93  1  0.39502687  0.61025419  1.00000000  1
  O  O94  1  0.89502687  0.61025419  0.50000000  1
  O  O95  1  0.89502687  0.61025419  1.00000000  1
