# generated using pymatgen
data_V2O5
_symmetry_space_group_name_H-M   'P 1'
_cell_length_a   10.64054556
_cell_length_b   11.62419214
_cell_length_c   12.62745333
_cell_angle_alpha   90.00000000
_cell_angle_beta   90.00000000
_cell_angle_gamma   90.00000000
_symmetry_Int_Tables_number   1
_chemical_formula_structural   V2O5
_chemical_formula_sum   'V36 O90'
_cell_volume   1561.86124084
_cell_formula_units_Z   18
loop_
 _symmetry_equiv_pos_site_id
 _symmetry_equiv_pos_as_xyz
  1  'x, y, z'
loop_
 _atom_site_type_symbol
 _atom_site_label
 _atom_site_symmetry_multiplicity
 _atom_site_fract_x
 _atom_site_fract_y
 _atom_site_fract_z
 _atom_site_occupancy
  V  V0  1  0.00000000  0.64848343  0.13069602  1
  V  V1  1  0.00000000  0.64848343  0.46402936  1
  V  V2  1  0.00000000  0.64848343  0.79736269  1
  V  V3  1  0.33333333  0.64848343  0.13069602  1
  V  V4  1  0.33333333  0.64848343  0.46402936  1
  V  V5  1  0.33333333  0.64848343  0.79736269  1
  V  V6  1  0.66666667  0.64848343  0.13069602  1
  V  V7  1  0.66666667  0.64848343  0.46402936  1
  V  V8  1  0.66666667  0.64848343  0.79736269  1
  V  V9  1  0.16666667  0.85151657  0.20263731  1
  V  V10  1  0.16666667  0.85151657  0.53597064  1
  V  V11  1  0.16666667  0.85151657  0.86930398  1
  V  V12  1  0.50000000  0.85151657  0.20263731  1
  V  V13  1  0.50000000  0.85151657  0.53597064  1
  V  V14  1  0.50000000  0.85151657  0.86930398  1
  V  V15  1  0.83333333  0.85151657  0.20263731  1
  V  V16  1  0.83333333  0.85151657  0.53597064  1
  V  V17  1  0.83333333  0.85151657  0.86930398  1
  V  V18  1  0.16666667  0.14848343  0.20263731  1
  V  V19  1  0.16666667  0.14848343  0.53597064  1
  V  V20  1  0.16666667  0.14848343  0.86930398  1
  V  V21  1  0.50000000  0.14848343  0.20263731  1
  V  V22  1  0.50000000  0.14848343  0.53597064  1
  V  V23  1  0.50000000  0.14848343  0.86930398  1
  V  V24  1  0.83333333  0.14848343  0.20263731  1
  V  V25  1  0.83333333  0.14848343  0.53597064  1
  V  V26  1  0.83333333  0.14848343  0.86930398  1
  V  V27  1  0.00000000  0.35151657  0.13069602  1
  V  V28  1  0.00000000  0.35151657  0.46402936  1
  V  V29  1  0.00000000  0.35151657  0.79736269  1
  V  V30  1  0.33333333  0.35151657  0.13069602  1
  V  V31  1  0.33333333  0.35151657  0.46402936  1
  V  V32  1  0.33333333  0.35151657  0.79736269  1
  V  V33  1  0.66666667  0.35151657  0.13069602  1
  V  V34  1  0.66666667  0.35151657  0.46402936  1
  V  V35  1  0.66666667  0.35151657  0.79736269  1
  O  O36  1  0.16666667  0.68198534  0.16523500  1
  O  O37  1  0.16666667  0.68198534  0.49856833  1
  O  O38  1  0.16666667  0.68198534  0.83190166  1
  O  O39  1  0.50000000  0.68198534  0.16523500  1
  O  O40  1  0.50000000  0.68198534  0.49856833  1
  O  O41  1  0.50000000  0.68198534  0.83190166  1
  O  O42  1  0.83333333  0.68198534  0.16523500  1
  O  O43  1  0.83333333  0.68198534  0.49856833  1
  O  O44  1  0.83333333  0.68198534  0.83190166  1
  O  O45  1  0.00000000  0.81801466  0.16809834  1
  O  O46  1  0.00000000  0.81801466  0.50143167  1
  O  O47  1  0.00000000  0.81801466  0.83476500  1
  O  O48  1  0.33333333  0.81801466  0.16809834  1
  O  O49  1  0.33333333  0.81801466  0.50143167  1
  O  O50  1  0.33333333  0.81801466  0.83476500  1
  O  O51  1  0.66666667  0.81801466  0.16809834  1
  O  O52  1  0.66666667  0.81801466  0.50143167  1
  O  O53  1  0.66666667  0.81801466  0.83476500  1
  O  O54  1  0.00000000  0.18198534  0.16809834  1
  O  O55  1  0.00000000  0.18198534  0.50143167  1
  O  O56  1  0.00000000  0.18198534  0.83476500  1
  O  O57  1  0.33333333  0.18198534  0.16809834  1
  O  O58  1  0.33333333  0.18198534  0.50143167  1
  O  O59  1  0.33333333  0.18198534  0.83476500  1
  O  O60  1  0.66666667  0.18198534  0.16809834  1
  O  O61  1  0.66666667  0.18198534  0.50143167  1
  O  O62  1  0.66666667  0.18198534  0.83476500  1
  O  O63  1  0.16666667  0.31801466  0.16523500  1
  O  O64  1  0.16666667  0.31801466  0.49856833  1
  O  O65  1  0.16666667  0.31801466  0.83190166  1
  O  O66  1  0.50000000  0.31801466  0.16523500  1
  O  O67  1  0.50000000  0.31801466  0.49856833  1
  O  O68  1  0.50000000  0.31801466  0.83190166  1
  O  O69  1  0.83333333  0.31801466  0.16523500  1
  O  O70  1  0.83333333  0.31801466  0.49856833  1
  O  O71  1  0.83333333  0.31801466  0.83190166  1
  O  O72  1  0.00000000  0.35302466  0.00318576  1
  O  O73  1  0.00000000  0.35302466  0.33651909  1
  O  O74  1  0.00000000  0.35302466  0.66985243  1
  O  O75  1  0.33333333  0.35302466  0.00318576  1
  O  O76  1  0.33333333  0.35302466  0.33651909  1
  O  O77  1  0.33333333  0.35302466  0.66985243  1
  O  O78  1  0.66666667  0.35302466  0.00318576  1
  O  O79  1  0.66666667  0.35302466  0.33651909  1
  O  O80  1  0.66666667  0.35302466  0.66985243  1
  O  O81  1  0.16666667  0.14697534  0.33014757  1
  O  O82  1  0.16666667  0.14697534  0.66348091  1
  O  O83  1  0.16666667  0.14697534  0.99681424  1
  O  O84  1  0.50000000  0.14697534  0.33014757  1
  O  O85  1  0.50000000  0.14697534  0.66348091  1
  O  O86  1  0.50000000  0.14697534  0.99681424  1
  O  O87  1  0.83333333  0.14697534  0.33014757  1
  O  O88  1  0.83333333  0.14697534  0.66348091  1
  O  O89  1  0.83333333  0.14697534  0.99681424  1
  O  O90  1  0.16666667  0.85302466  0.33014757  1
  O  O91  1  0.16666667  0.85302466  0.66348091  1
  O  O92  1  0.16666667  0.85302466  0.99681424  1
  O  O93  1  0.50000000  0.85302466  0.33014757  1
  O  O94  1  0.50000000  0.85302466  0.66348091  1
  O  O95  1  0.50000000  0.85302466  0.99681424  1
  O  O96  1  0.83333333  0.85302466  0.33014757  1
  O  O97  1  0.83333333  0.85302466  0.66348091  1
  O  O98  1  0.83333333  0.85302466  0.99681424  1
  O  O99  1  0.16666667  0.00000000  0.16937045  1
  O  O100  1  0.16666667  0.00000000  0.50270379  1
  O  O101  1  0.16666667  0.00000000  0.83603712  1
  O  O102  1  0.50000000  0.00000000  0.16937045  1
  O  O103  1  0.50000000  0.00000000  0.50270379  1
  O  O104  1  0.50000000  0.00000000  0.83603712  1
  O  O105  1  0.83333333  0.00000000  0.16937045  1
  O  O106  1  0.83333333  0.00000000  0.50270379  1
  O  O107  1  0.83333333  0.00000000  0.83603712  1
  O  O108  1  0.00000000  0.50000000  0.16396288  1
  O  O109  1  0.00000000  0.50000000  0.49729621  1
  O  O110  1  0.00000000  0.50000000  0.83062955  1
  O  O111  1  0.33333333  0.50000000  0.16396288  1
  O  O112  1  0.33333333  0.50000000  0.49729621  1
  O  O113  1  0.33333333  0.50000000  0.83062955  1
  O  O114  1  0.66666667  0.50000000  0.16396288  1
  O  O115  1  0.66666667  0.50000000  0.49729621  1
  O  O116  1  0.66666667  0.50000000  0.83062955  1
  O  O117  1  0.00000000  0.64697534  0.00318576  1
  O  O118  1  0.00000000  0.64697534  0.33651909  1
  O  O119  1  0.00000000  0.64697534  0.66985243  1
  O  O120  1  0.33333333  0.64697534  0.00318576  1
  O  O121  1  0.33333333  0.64697534  0.33651909  1
  O  O122  1  0.33333333  0.64697534  0.66985243  1
  O  O123  1  0.66666667  0.64697534  0.00318576  1
  O  O124  1  0.66666667  0.64697534  0.33651909  1
  O  O125  1  0.66666667  0.64697534  0.66985243  1
