# generated using pymatgen
data_HgO
_symmetry_space_group_name_H-M   'P 1'
_cell_length_a   19.98715837
_cell_length_b   16.51376763
_cell_length_c   17.80205212
_cell_angle_alpha   90.00000000
_cell_angle_beta   90.00000000
_cell_angle_gamma   90.00000000
_symmetry_Int_Tables_number   1
_chemical_formula_structural   HgO
_chemical_formula_sum   'Hg180 O180'
_cell_volume   5875.80387030
_cell_formula_units_Z   180
loop_
 _symmetry_equiv_pos_site_id
 _symmetry_equiv_pos_as_xyz
  1  'x, y, z'
loop_
 _atom_site_type_symbol
 _atom_site_label
 _atom_site_symmetry_multiplicity
 _atom_site_fract_x
 _atom_site_fract_y
 _atom_site_fract_z
 _atom_site_occupancy
  Hg  Hg0  1  0.12781119  0.25000000  0.14920997  1
  Hg  Hg1  1  0.12781119  0.25000000  0.34920997  1
  Hg  Hg2  1  0.12781119  0.25000000  0.54920997  1
  Hg  Hg3  1  0.12781119  0.25000000  0.74920997  1
  Hg  Hg4  1  0.12781119  0.25000000  0.94920997  1
  Hg  Hg5  1  0.12781119  0.58333333  0.14920997  1
  Hg  Hg6  1  0.12781119  0.58333333  0.34920997  1
  Hg  Hg7  1  0.12781119  0.58333333  0.54920997  1
  Hg  Hg8  1  0.12781119  0.58333333  0.74920997  1
  Hg  Hg9  1  0.12781119  0.58333333  0.94920997  1
  Hg  Hg10  1  0.12781119  0.91666667  0.14920997  1
  Hg  Hg11  1  0.12781119  0.91666667  0.34920997  1
  Hg  Hg12  1  0.12781119  0.91666667  0.54920997  1
  Hg  Hg13  1  0.12781119  0.91666667  0.74920997  1
  Hg  Hg14  1  0.12781119  0.91666667  0.94920997  1
  Hg  Hg15  1  0.46114452  0.25000000  0.14920997  1
  Hg  Hg16  1  0.46114452  0.25000000  0.34920997  1
  Hg  Hg17  1  0.46114452  0.25000000  0.54920997  1
  Hg  Hg18  1  0.46114452  0.25000000  0.74920997  1
  Hg  Hg19  1  0.46114452  0.25000000  0.94920997  1
  Hg  Hg20  1  0.46114452  0.58333333  0.14920997  1
  Hg  Hg21  1  0.46114452  0.58333333  0.34920997  1
  Hg  Hg22  1  0.46114452  0.58333333  0.54920997  1
  Hg  Hg23  1  0.46114452  0.58333333  0.74920997  1
  Hg  Hg24  1  0.46114452  0.58333333  0.94920997  1
  Hg  Hg25  1  0.46114452  0.91666667  0.14920997  1
  Hg  Hg26  1  0.46114452  0.91666667  0.34920997  1
  Hg  Hg27  1  0.46114452  0.91666667  0.54920997  1
  Hg  Hg28  1  0.46114452  0.91666667  0.74920997  1
  Hg  Hg29  1  0.46114452  0.91666667  0.94920997  1
  Hg  Hg30  1  0.79447785  0.25000000  0.14920997  1
  Hg  Hg31  1  0.79447785  0.25000000  0.34920997  1
  Hg  Hg32  1  0.79447785  0.25000000  0.54920997  1
  Hg  Hg33  1  0.79447785  0.25000000  0.74920997  1
  Hg  Hg34  1  0.79447785  0.25000000  0.94920997  1
  Hg  Hg35  1  0.79447785  0.58333333  0.14920997  1
  Hg  Hg36  1  0.79447785  0.58333333  0.34920997  1
  Hg  Hg37  1  0.79447785  0.58333333  0.54920997  1
  Hg  Hg38  1  0.79447785  0.58333333  0.74920997  1
  Hg  Hg39  1  0.79447785  0.58333333  0.94920997  1
  Hg  Hg40  1  0.79447785  0.91666667  0.14920997  1
  Hg  Hg41  1  0.79447785  0.91666667  0.34920997  1
  Hg  Hg42  1  0.79447785  0.91666667  0.54920997  1
  Hg  Hg43  1  0.79447785  0.91666667  0.74920997  1
  Hg  Hg44  1  0.79447785  0.91666667  0.94920997  1
  Hg  Hg45  1  0.03885548  0.08333333  0.04920997  1
  Hg  Hg46  1  0.03885548  0.08333333  0.24920997  1
  Hg  Hg47  1  0.03885548  0.08333333  0.44920997  1
  Hg  Hg48  1  0.03885548  0.08333333  0.64920997  1
  Hg  Hg49  1  0.03885548  0.08333333  0.84920997  1
  Hg  Hg50  1  0.03885548  0.41666667  0.04920997  1
  Hg  Hg51  1  0.03885548  0.41666667  0.24920997  1
  Hg  Hg52  1  0.03885548  0.41666667  0.44920997  1
  Hg  Hg53  1  0.03885548  0.41666667  0.64920997  1
  Hg  Hg54  1  0.03885548  0.41666667  0.84920997  1
  Hg  Hg55  1  0.03885548  0.75000000  0.04920997  1
  Hg  Hg56  1  0.03885548  0.75000000  0.24920997  1
  Hg  Hg57  1  0.03885548  0.75000000  0.44920997  1
  Hg  Hg58  1  0.03885548  0.75000000  0.64920997  1
  Hg  Hg59  1  0.03885548  0.75000000  0.84920997  1
  Hg  Hg60  1  0.37218881  0.08333333  0.04920997  1
  Hg  Hg61  1  0.37218881  0.08333333  0.24920997  1
  Hg  Hg62  1  0.37218881  0.08333333  0.44920997  1
  Hg  Hg63  1  0.37218881  0.08333333  0.64920997  1
  Hg  Hg64  1  0.37218881  0.08333333  0.84920997  1
  Hg  Hg65  1  0.37218881  0.41666667  0.04920997  1
  Hg  Hg66  1  0.37218881  0.41666667  0.24920997  1
  Hg  Hg67  1  0.37218881  0.41666667  0.44920997  1
  Hg  Hg68  1  0.37218881  0.41666667  0.64920997  1
  Hg  Hg69  1  0.37218881  0.41666667  0.84920997  1
  Hg  Hg70  1  0.37218881  0.75000000  0.04920997  1
  Hg  Hg71  1  0.37218881  0.75000000  0.24920997  1
  Hg  Hg72  1  0.37218881  0.75000000  0.44920997  1
  Hg  Hg73  1  0.37218881  0.75000000  0.64920997  1
  Hg  Hg74  1  0.37218881  0.75000000  0.84920997  1
  Hg  Hg75  1  0.70552215  0.08333333  0.04920997  1
  Hg  Hg76  1  0.70552215  0.08333333  0.24920997  1
  Hg  Hg77  1  0.70552215  0.08333333  0.44920997  1
  Hg  Hg78  1  0.70552215  0.08333333  0.64920997  1
  Hg  Hg79  1  0.70552215  0.08333333  0.84920997  1
  Hg  Hg80  1  0.70552215  0.41666667  0.04920997  1
  Hg  Hg81  1  0.70552215  0.41666667  0.24920997  1
  Hg  Hg82  1  0.70552215  0.41666667  0.44920997  1
  Hg  Hg83  1  0.70552215  0.41666667  0.64920997  1
  Hg  Hg84  1  0.70552215  0.41666667  0.84920997  1
  Hg  Hg85  1  0.70552215  0.75000000  0.04920997  1
  Hg  Hg86  1  0.70552215  0.75000000  0.24920997  1
  Hg  Hg87  1  0.70552215  0.75000000  0.44920997  1
  Hg  Hg88  1  0.70552215  0.75000000  0.64920997  1
  Hg  Hg89  1  0.70552215  0.75000000  0.84920997  1
  Hg  Hg90  1  0.20552215  0.08333333  0.05079003  1
  Hg  Hg91  1  0.20552215  0.08333333  0.25079003  1
  Hg  Hg92  1  0.20552215  0.08333333  0.45079003  1
  Hg  Hg93  1  0.20552215  0.08333333  0.65079003  1
  Hg  Hg94  1  0.20552215  0.08333333  0.85079003  1
  Hg  Hg95  1  0.20552215  0.41666667  0.05079003  1
  Hg  Hg96  1  0.20552215  0.41666667  0.25079003  1
  Hg  Hg97  1  0.20552215  0.41666667  0.45079003  1
  Hg  Hg98  1  0.20552215  0.41666667  0.65079003  1
  Hg  Hg99  1  0.20552215  0.41666667  0.85079003  1
  Hg  Hg100  1  0.20552215  0.75000000  0.05079003  1
  Hg  Hg101  1  0.20552215  0.75000000  0.25079003  1
  Hg  Hg102  1  0.20552215  0.75000000  0.45079003  1
  Hg  Hg103  1  0.20552215  0.75000000  0.65079003  1
  Hg  Hg104  1  0.20552215  0.75000000  0.85079003  1
  Hg  Hg105  1  0.53885548  0.08333333  0.05079003  1
  Hg  Hg106  1  0.53885548  0.08333333  0.25079003  1
  Hg  Hg107  1  0.53885548  0.08333333  0.45079003  1
  Hg  Hg108  1  0.53885548  0.08333333  0.65079003  1
  Hg  Hg109  1  0.53885548  0.08333333  0.85079003  1
  Hg  Hg110  1  0.53885548  0.41666667  0.05079003  1
  Hg  Hg111  1  0.53885548  0.41666667  0.25079003  1
  Hg  Hg112  1  0.53885548  0.41666667  0.45079003  1
  Hg  Hg113  1  0.53885548  0.41666667  0.65079003  1
  Hg  Hg114  1  0.53885548  0.41666667  0.85079003  1
  Hg  Hg115  1  0.53885548  0.75000000  0.05079003  1
  Hg  Hg116  1  0.53885548  0.75000000  0.25079003  1
  Hg  Hg117  1  0.53885548  0.75000000  0.45079003  1
  Hg  Hg118  1  0.53885548  0.75000000  0.65079003  1
  Hg  Hg119  1  0.53885548  0.75000000  0.85079003  1
  Hg  Hg120  1  0.87218881  0.08333333  0.05079003  1
  Hg  Hg121  1  0.87218881  0.08333333  0.25079003  1
  Hg  Hg122  1  0.87218881  0.08333333  0.45079003  1
  Hg  Hg123  1  0.87218881  0.08333333  0.65079003  1
  Hg  Hg124  1  0.87218881  0.08333333  0.85079003  1
  Hg  Hg125  1  0.87218881  0.41666667  0.05079003  1
  Hg  Hg126  1  0.87218881  0.41666667  0.25079003  1
  Hg  Hg127  1  0.87218881  0.41666667  0.45079003  1
  Hg  Hg128  1  0.87218881  0.41666667  0.65079003  1
  Hg  Hg129  1  0.87218881  0.41666667  0.85079003  1
  Hg  Hg130  1  0.87218881  0.75000000  0.05079003  1
  Hg  Hg131  1  0.87218881  0.75000000  0.25079003  1
  Hg  Hg132  1  0.87218881  0.75000000  0.45079003  1
  Hg  Hg133  1  0.87218881  0.75000000  0.65079003  1
  Hg  Hg134  1  0.87218881  0.75000000  0.85079003  1
  Hg  Hg135  1  0.29447785  0.25000000  0.15079003  1
  Hg  Hg136  1  0.29447785  0.25000000  0.35079003  1
  Hg  Hg137  1  0.29447785  0.25000000  0.55079003  1
  Hg  Hg138  1  0.29447785  0.25000000  0.75079003  1
  Hg  Hg139  1  0.29447785  0.25000000  0.95079003  1
  Hg  Hg140  1  0.29447785  0.58333333  0.15079003  1
  Hg  Hg141  1  0.29447785  0.58333333  0.35079003  1
  Hg  Hg142  1  0.29447785  0.58333333  0.55079003  1
  Hg  Hg143  1  0.29447785  0.58333333  0.75079003  1
  Hg  Hg144  1  0.29447785  0.58333333  0.95079003  1
  Hg  Hg145  1  0.29447785  0.91666667  0.15079003  1
  Hg  Hg146  1  0.29447785  0.91666667  0.35079003  1
  Hg  Hg147  1  0.29447785  0.91666667  0.55079003  1
  Hg  Hg148  1  0.29447785  0.91666667  0.75079003  1
  Hg  Hg149  1  0.29447785  0.91666667  0.95079003  1
  Hg  Hg150  1  0.62781119  0.25000000  0.15079003  1
  Hg  Hg151  1  0.62781119  0.25000000  0.35079003  1
  Hg  Hg152  1  0.62781119  0.25000000  0.55079003  1
  Hg  Hg153  1  0.62781119  0.25000000  0.75079003  1
  Hg  Hg154  1  0.62781119  0.25000000  0.95079003  1
  Hg  Hg155  1  0.62781119  0.58333333  0.15079003  1
  Hg  Hg156  1  0.62781119  0.58333333  0.35079003  1
  Hg  Hg157  1  0.62781119  0.58333333  0.55079003  1
  Hg  Hg158  1  0.62781119  0.58333333  0.75079003  1
  Hg  Hg159  1  0.62781119  0.58333333  0.95079003  1
  Hg  Hg160  1  0.62781119  0.91666667  0.15079003  1
  Hg  Hg161  1  0.62781119  0.91666667  0.35079003  1
  Hg  Hg162  1  0.62781119  0.91666667  0.55079003  1
  Hg  Hg163  1  0.62781119  0.91666667  0.75079003  1
  Hg  Hg164  1  0.62781119  0.91666667  0.95079003  1
  Hg  Hg165  1  0.96114452  0.25000000  0.15079003  1
  Hg  Hg166  1  0.96114452  0.25000000  0.35079003  1
  Hg  Hg167  1  0.96114452  0.25000000  0.55079003  1
  Hg  Hg168  1  0.96114452  0.25000000  0.75079003  1
  Hg  Hg169  1  0.96114452  0.25000000  0.95079003  1
  Hg  Hg170  1  0.96114452  0.58333333  0.15079003  1
  Hg  Hg171  1  0.96114452  0.58333333  0.35079003  1
  Hg  Hg172  1  0.96114452  0.58333333  0.55079003  1
  Hg  Hg173  1  0.96114452  0.58333333  0.75079003  1
  Hg  Hg174  1  0.96114452  0.58333333  0.95079003  1
  Hg  Hg175  1  0.96114452  0.91666667  0.15079003  1
  Hg  Hg176  1  0.96114452  0.91666667  0.35079003  1
  Hg  Hg177  1  0.96114452  0.91666667  0.55079003  1
  Hg  Hg178  1  0.96114452  0.91666667  0.75079003  1
  Hg  Hg179  1  0.96114452  0.91666667  0.95079003  1
  O  O180  1  0.04514576  0.25000000  0.01742718  1
  O  O181  1  0.04514576  0.25000000  0.21742718  1
  O  O182  1  0.04514576  0.25000000  0.41742718  1
  O  O183  1  0.04514576  0.25000000  0.61742718  1
  O  O184  1  0.04514576  0.25000000  0.81742718  1
  O  O185  1  0.04514576  0.58333333  0.01742718  1
  O  O186  1  0.04514576  0.58333333  0.21742718  1
  O  O187  1  0.04514576  0.58333333  0.41742718  1
  O  O188  1  0.04514576  0.58333333  0.61742718  1
  O  O189  1  0.04514576  0.58333333  0.81742718  1
  O  O190  1  0.04514576  0.91666667  0.01742718  1
  O  O191  1  0.04514576  0.91666667  0.21742718  1
  O  O192  1  0.04514576  0.91666667  0.41742718  1
  O  O193  1  0.04514576  0.91666667  0.61742718  1
  O  O194  1  0.04514576  0.91666667  0.81742718  1
  O  O195  1  0.37847910  0.25000000  0.01742718  1
  O  O196  1  0.37847910  0.25000000  0.21742718  1
  O  O197  1  0.37847910  0.25000000  0.41742718  1
  O  O198  1  0.37847910  0.25000000  0.61742718  1
  O  O199  1  0.37847910  0.25000000  0.81742718  1
  O  O200  1  0.37847910  0.58333333  0.01742718  1
  O  O201  1  0.37847910  0.58333333  0.21742718  1
  O  O202  1  0.37847910  0.58333333  0.41742718  1
  O  O203  1  0.37847910  0.58333333  0.61742718  1
  O  O204  1  0.37847910  0.58333333  0.81742718  1
  O  O205  1  0.37847910  0.91666667  0.01742718  1
  O  O206  1  0.37847910  0.91666667  0.21742718  1
  O  O207  1  0.37847910  0.91666667  0.41742718  1
  O  O208  1  0.37847910  0.91666667  0.61742718  1
  O  O209  1  0.37847910  0.91666667  0.81742718  1
  O  O210  1  0.71181243  0.25000000  0.01742718  1
  O  O211  1  0.71181243  0.25000000  0.21742718  1
  O  O212  1  0.71181243  0.25000000  0.41742718  1
  O  O213  1  0.71181243  0.25000000  0.61742718  1
  O  O214  1  0.71181243  0.25000000  0.81742718  1
  O  O215  1  0.71181243  0.58333333  0.01742718  1
  O  O216  1  0.71181243  0.58333333  0.21742718  1
  O  O217  1  0.71181243  0.58333333  0.41742718  1
  O  O218  1  0.71181243  0.58333333  0.61742718  1
  O  O219  1  0.71181243  0.58333333  0.81742718  1
  O  O220  1  0.71181243  0.91666667  0.01742718  1
  O  O221  1  0.71181243  0.91666667  0.21742718  1
  O  O222  1  0.71181243  0.91666667  0.41742718  1
  O  O223  1  0.71181243  0.91666667  0.61742718  1
  O  O224  1  0.71181243  0.91666667  0.81742718  1
  O  O225  1  0.12152090  0.08333333  0.11742718  1
  O  O226  1  0.12152090  0.08333333  0.31742718  1
  O  O227  1  0.12152090  0.08333333  0.51742718  1
  O  O228  1  0.12152090  0.08333333  0.71742718  1
  O  O229  1  0.12152090  0.08333333  0.91742718  1
  O  O230  1  0.12152090  0.41666667  0.11742718  1
  O  O231  1  0.12152090  0.41666667  0.31742718  1
  O  O232  1  0.12152090  0.41666667  0.51742718  1
  O  O233  1  0.12152090  0.41666667  0.71742718  1
  O  O234  1  0.12152090  0.41666667  0.91742718  1
  O  O235  1  0.12152090  0.75000000  0.11742718  1
  O  O236  1  0.12152090  0.75000000  0.31742718  1
  O  O237  1  0.12152090  0.75000000  0.51742718  1
  O  O238  1  0.12152090  0.75000000  0.71742718  1
  O  O239  1  0.12152090  0.75000000  0.91742718  1
  O  O240  1  0.45485424  0.08333333  0.11742718  1
  O  O241  1  0.45485424  0.08333333  0.31742718  1
  O  O242  1  0.45485424  0.08333333  0.51742718  1
  O  O243  1  0.45485424  0.08333333  0.71742718  1
  O  O244  1  0.45485424  0.08333333  0.91742718  1
  O  O245  1  0.45485424  0.41666667  0.11742718  1
  O  O246  1  0.45485424  0.41666667  0.31742718  1
  O  O247  1  0.45485424  0.41666667  0.51742718  1
  O  O248  1  0.45485424  0.41666667  0.71742718  1
  O  O249  1  0.45485424  0.41666667  0.91742718  1
  O  O250  1  0.45485424  0.75000000  0.11742718  1
  O  O251  1  0.45485424  0.75000000  0.31742718  1
  O  O252  1  0.45485424  0.75000000  0.51742718  1
  O  O253  1  0.45485424  0.75000000  0.71742718  1
  O  O254  1  0.45485424  0.75000000  0.91742718  1
  O  O255  1  0.78818757  0.08333333  0.11742718  1
  O  O256  1  0.78818757  0.08333333  0.31742718  1
  O  O257  1  0.78818757  0.08333333  0.51742718  1
  O  O258  1  0.78818757  0.08333333  0.71742718  1
  O  O259  1  0.78818757  0.08333333  0.91742718  1
  O  O260  1  0.78818757  0.41666667  0.11742718  1
  O  O261  1  0.78818757  0.41666667  0.31742718  1
  O  O262  1  0.78818757  0.41666667  0.51742718  1
  O  O263  1  0.78818757  0.41666667  0.71742718  1
  O  O264  1  0.78818757  0.41666667  0.91742718  1
  O  O265  1  0.78818757  0.75000000  0.11742718  1
  O  O266  1  0.78818757  0.75000000  0.31742718  1
  O  O267  1  0.78818757  0.75000000  0.51742718  1
  O  O268  1  0.78818757  0.75000000  0.71742718  1
  O  O269  1  0.78818757  0.75000000  0.91742718  1
  O  O270  1  0.28818757  0.08333333  0.18257282  1
  O  O271  1  0.28818757  0.08333333  0.38257282  1
  O  O272  1  0.28818757  0.08333333  0.58257282  1
  O  O273  1  0.28818757  0.08333333  0.78257282  1
  O  O274  1  0.28818757  0.08333333  0.98257282  1
  O  O275  1  0.28818757  0.41666667  0.18257282  1
  O  O276  1  0.28818757  0.41666667  0.38257282  1
  O  O277  1  0.28818757  0.41666667  0.58257282  1
  O  O278  1  0.28818757  0.41666667  0.78257282  1
  O  O279  1  0.28818757  0.41666667  0.98257282  1
  O  O280  1  0.28818757  0.75000000  0.18257282  1
  O  O281  1  0.28818757  0.75000000  0.38257282  1
  O  O282  1  0.28818757  0.75000000  0.58257282  1
  O  O283  1  0.28818757  0.75000000  0.78257282  1
  O  O284  1  0.28818757  0.75000000  0.98257282  1
  O  O285  1  0.62152090  0.08333333  0.18257282  1
  O  O286  1  0.62152090  0.08333333  0.38257282  1
  O  O287  1  0.62152090  0.08333333  0.58257282  1
  O  O288  1  0.62152090  0.08333333  0.78257282  1
  O  O289  1  0.62152090  0.08333333  0.98257282  1
  O  O290  1  0.62152090  0.41666667  0.18257282  1
  O  O291  1  0.62152090  0.41666667  0.38257282  1
  O  O292  1  0.62152090  0.41666667  0.58257282  1
  O  O293  1  0.62152090  0.41666667  0.78257282  1
  O  O294  1  0.62152090  0.41666667  0.98257282  1
  O  O295  1  0.62152090  0.75000000  0.18257282  1
  O  O296  1  0.62152090  0.75000000  0.38257282  1
  O  O297  1  0.62152090  0.75000000  0.58257282  1
  O  O298  1  0.62152090  0.75000000  0.78257282  1
  O  O299  1  0.62152090  0.75000000  0.98257282  1
  O  O300  1  0.95485424  0.08333333  0.18257282  1
  O  O301  1  0.95485424  0.08333333  0.38257282  1
  O  O302  1  0.95485424  0.08333333  0.58257282  1
  O  O303  1  0.95485424  0.08333333  0.78257282  1
  O  O304  1  0.95485424  0.08333333  0.98257282  1
  O  O305  1  0.95485424  0.41666667  0.18257282  1
  O  O306  1  0.95485424  0.41666667  0.38257282  1
  O  O307  1  0.95485424  0.41666667  0.58257282  1
  O  O308  1  0.95485424  0.41666667  0.78257282  1
  O  O309  1  0.95485424  0.41666667  0.98257282  1
  O  O310  1  0.95485424  0.75000000  0.18257282  1
  O  O311  1  0.95485424  0.75000000  0.38257282  1
  O  O312  1  0.95485424  0.75000000  0.58257282  1
  O  O313  1  0.95485424  0.75000000  0.78257282  1
  O  O314  1  0.95485424  0.75000000  0.98257282  1
  O  O315  1  0.21181243  0.25000000  0.08257282  1
  O  O316  1  0.21181243  0.25000000  0.28257282  1
  O  O317  1  0.21181243  0.25000000  0.48257282  1
  O  O318  1  0.21181243  0.25000000  0.68257282  1
  O  O319  1  0.21181243  0.25000000  0.88257282  1
  O  O320  1  0.21181243  0.58333333  0.08257282  1
  O  O321  1  0.21181243  0.58333333  0.28257282  1
  O  O322  1  0.21181243  0.58333333  0.48257282  1
  O  O323  1  0.21181243  0.58333333  0.68257282  1
  O  O324  1  0.21181243  0.58333333  0.88257282  1
  O  O325  1  0.21181243  0.91666667  0.08257282  1
  O  O326  1  0.21181243  0.91666667  0.28257282  1
  O  O327  1  0.21181243  0.91666667  0.48257282  1
  O  O328  1  0.21181243  0.91666667  0.68257282  1
  O  O329  1  0.21181243  0.91666667  0.88257282  1
  O  O330  1  0.54514576  0.25000000  0.08257282  1
  O  O331  1  0.54514576  0.25000000  0.28257282  1
  O  O332  1  0.54514576  0.25000000  0.48257282  1
  O  O333  1  0.54514576  0.25000000  0.68257282  1
  O  O334  1  0.54514576  0.25000000  0.88257282  1
  O  O335  1  0.54514576  0.58333333  0.08257282  1
  O  O336  1  0.54514576  0.58333333  0.28257282  1
  O  O337  1  0.54514576  0.58333333  0.48257282  1
  O  O338  1  0.54514576  0.58333333  0.68257282  1
  O  O339  1  0.54514576  0.58333333  0.88257282  1
  O  O340  1  0.54514576  0.91666667  0.08257282  1
  O  O341  1  0.54514576  0.91666667  0.28257282  1
  O  O342  1  0.54514576  0.91666667  0.48257282  1
  O  O343  1  0.54514576  0.91666667  0.68257282  1
  O  O344  1  0.54514576  0.91666667  0.88257282  1
  O  O345  1  0.87847910  0.25000000  0.08257282  1
  O  O346  1  0.87847910  0.25000000  0.28257282  1
  O  O347  1  0.87847910  0.25000000  0.48257282  1
  O  O348  1  0.87847910  0.25000000  0.68257282  1
  O  O349  1  0.87847910  0.25000000  0.88257282  1
  O  O350  1  0.87847910  0.58333333  0.08257282  1
  O  O351  1  0.87847910  0.58333333  0.28257282  1
  O  O352  1  0.87847910  0.58333333  0.48257282  1
  O  O353  1  0.87847910  0.58333333  0.68257282  1
  O  O354  1  0.87847910  0.58333333  0.88257282  1
  O  O355  1  0.87847910  0.91666667  0.08257282  1
  O  O356  1  0.87847910  0.91666667  0.28257282  1
  O  O357  1  0.87847910  0.91666667  0.48257282  1
  O  O358  1  0.87847910  0.91666667  0.68257282  1
  O  O359  1  0.87847910  0.91666667  0.88257282  1
