# generated using pymatgen
data_LiInGeO4
_symmetry_space_group_name_H-M   'P 1'
_cell_length_a   10.84916698
_cell_length_b   12.22927850
_cell_length_c   10.09004825
_cell_angle_alpha   90.00000000
_cell_angle_beta   90.00000000
_cell_angle_gamma   90.00000000
_symmetry_Int_Tables_number   1
_chemical_formula_structural   LiInGeO4
_chemical_formula_sum   'Li16 In16 Ge16 O64'
_cell_volume   1338.72221957
_cell_formula_units_Z   16
loop_
 _symmetry_equiv_pos_site_id
 _symmetry_equiv_pos_as_xyz
  1  'x, y, z'
loop_
 _atom_site_type_symbol
 _atom_site_label
 _atom_site_symmetry_multiplicity
 _atom_site_fract_x
 _atom_site_fract_y
 _atom_site_fract_z
 _atom_site_occupancy
  Li  Li0  1  0.00000000  0.00000000  0.00000000  1
  Li  Li1  1  0.00000000  0.00000000  0.50000000  1
  Li  Li2  1  0.00000000  0.50000000  0.00000000  1
  Li  Li3  1  0.00000000  0.50000000  0.50000000  1
  Li  Li4  1  0.50000000  0.00000000  0.25000000  1
  Li  Li5  1  0.50000000  0.00000000  0.75000000  1
  Li  Li6  1  0.50000000  0.50000000  0.25000000  1
  Li  Li7  1  0.50000000  0.50000000  0.75000000  1
  Li  Li8  1  0.00000000  0.25000000  0.00000000  1
  Li  Li9  1  0.00000000  0.25000000  0.50000000  1
  Li  Li10  1  0.00000000  0.75000000  0.00000000  1
  Li  Li11  1  0.00000000  0.75000000  0.50000000  1
  Li  Li12  1  0.50000000  0.25000000  0.25000000  1
  Li  Li13  1  0.50000000  0.25000000  0.75000000  1
  Li  Li14  1  0.50000000  0.75000000  0.25000000  1
  Li  Li15  1  0.50000000  0.75000000  0.75000000  1
  In  In16  1  0.72924272  0.37500000  0.00266856  1
  In  In17  1  0.72924272  0.37500000  0.50266856  1
  In  In18  1  0.72924272  0.87500000  0.00266856  1
  In  In19  1  0.72924272  0.87500000  0.50266856  1
  In  In20  1  0.22924272  0.37500000  0.24733144  1
  In  In21  1  0.22924272  0.37500000  0.74733144  1
  In  In22  1  0.22924272  0.87500000  0.24733144  1
  In  In23  1  0.22924272  0.87500000  0.74733144  1
  In  In24  1  0.27075728  0.12500000  0.49733144  1
  In  In25  1  0.27075728  0.12500000  0.99733144  1
  In  In26  1  0.27075728  0.62500000  0.49733144  1
  In  In27  1  0.27075728  0.62500000  0.99733144  1
  In  In28  1  0.77075728  0.12500000  0.25266856  1
  In  In29  1  0.77075728  0.12500000  0.75266856  1
  In  In30  1  0.77075728  0.62500000  0.25266856  1
  In  In31  1  0.77075728  0.62500000  0.75266856  1
  Ge  Ge32  1  0.91449137  0.37500000  0.27884364  1
  Ge  Ge33  1  0.91449137  0.37500000  0.77884364  1
  Ge  Ge34  1  0.91449137  0.87500000  0.27884364  1
  Ge  Ge35  1  0.91449137  0.87500000  0.77884364  1
  Ge  Ge36  1  0.41449137  0.37500000  0.47115636  1
  Ge  Ge37  1  0.41449137  0.37500000  0.97115636  1
  Ge  Ge38  1  0.41449137  0.87500000  0.47115636  1
  Ge  Ge39  1  0.41449137  0.87500000  0.97115636  1
  Ge  Ge40  1  0.08550863  0.12500000  0.22115636  1
  Ge  Ge41  1  0.08550863  0.12500000  0.72115636  1
  Ge  Ge42  1  0.08550863  0.62500000  0.22115636  1
  Ge  Ge43  1  0.08550863  0.62500000  0.72115636  1
  Ge  Ge44  1  0.58550863  0.12500000  0.02884364  1
  Ge  Ge45  1  0.58550863  0.12500000  0.52884364  1
  Ge  Ge46  1  0.58550863  0.62500000  0.02884364  1
  Ge  Ge47  1  0.58550863  0.62500000  0.52884364  1
  O  O48  1  0.33482562  0.26497874  0.38504345  1
  O  O49  1  0.33482562  0.26497874  0.88504345  1
  O  O50  1  0.33482562  0.76497874  0.38504345  1
  O  O51  1  0.33482562  0.76497874  0.88504345  1
  O  O52  1  0.66517438  0.23502126  0.11495655  1
  O  O53  1  0.66517438  0.23502126  0.61495655  1
  O  O54  1  0.66517438  0.73502126  0.11495655  1
  O  O55  1  0.66517438  0.73502126  0.61495655  1
  O  O56  1  0.83482562  0.26497874  0.36495655  1
  O  O57  1  0.83482562  0.26497874  0.86495655  1
  O  O58  1  0.83482562  0.76497874  0.36495655  1
  O  O59  1  0.83482562  0.76497874  0.86495655  1
  O  O60  1  0.33482562  0.48502126  0.38504345  1
  O  O61  1  0.33482562  0.48502126  0.88504345  1
  O  O62  1  0.33482562  0.98502126  0.38504345  1
  O  O63  1  0.33482562  0.98502126  0.88504345  1
  O  O64  1  0.16517438  0.01497874  0.13504345  1
  O  O65  1  0.16517438  0.01497874  0.63504345  1
  O  O66  1  0.16517438  0.51497874  0.13504345  1
  O  O67  1  0.16517438  0.51497874  0.63504345  1
  O  O68  1  0.09154031  0.12500000  0.39533940  1
  O  O69  1  0.09154031  0.12500000  0.89533940  1
  O  O70  1  0.09154031  0.62500000  0.39533940  1
  O  O71  1  0.09154031  0.62500000  0.89533940  1
  O  O72  1  0.16517438  0.23502126  0.13504345  1
  O  O73  1  0.16517438  0.23502126  0.63504345  1
  O  O74  1  0.16517438  0.73502126  0.13504345  1
  O  O75  1  0.16517438  0.73502126  0.63504345  1
  O  O76  1  0.66517438  0.01497874  0.11495655  1
  O  O77  1  0.66517438  0.01497874  0.61495655  1
  O  O78  1  0.66517438  0.51497874  0.11495655  1
  O  O79  1  0.66517438  0.51497874  0.61495655  1
  O  O80  1  0.90845969  0.37500000  0.10466060  1
  O  O81  1  0.90845969  0.37500000  0.60466060  1
  O  O82  1  0.90845969  0.87500000  0.10466060  1
  O  O83  1  0.90845969  0.87500000  0.60466060  1
  O  O84  1  0.59154031  0.12500000  0.35466060  1
  O  O85  1  0.59154031  0.12500000  0.85466060  1
  O  O86  1  0.59154031  0.62500000  0.35466060  1
  O  O87  1  0.59154031  0.62500000  0.85466060  1
  O  O88  1  0.56062448  0.37500000  0.39151183  1
  O  O89  1  0.56062448  0.37500000  0.89151183  1
  O  O90  1  0.56062448  0.87500000  0.39151183  1
  O  O91  1  0.56062448  0.87500000  0.89151183  1
  O  O92  1  0.40845969  0.37500000  0.14533940  1
  O  O93  1  0.40845969  0.37500000  0.64533940  1
  O  O94  1  0.40845969  0.87500000  0.14533940  1
  O  O95  1  0.40845969  0.87500000  0.64533940  1
  O  O96  1  0.06062448  0.37500000  0.35848817  1
  O  O97  1  0.06062448  0.37500000  0.85848817  1
  O  O98  1  0.06062448  0.87500000  0.35848817  1
  O  O99  1  0.06062448  0.87500000  0.85848817  1
  O  O100  1  0.93937552  0.12500000  0.14151183  1
  O  O101  1  0.93937552  0.12500000  0.64151183  1
  O  O102  1  0.93937552  0.62500000  0.14151183  1
  O  O103  1  0.93937552  0.62500000  0.64151183  1
  O  O104  1  0.43937552  0.12500000  0.10848817  1
  O  O105  1  0.43937552  0.12500000  0.60848817  1
  O  O106  1  0.43937552  0.62500000  0.10848817  1
  O  O107  1  0.43937552  0.62500000  0.60848817  1
  O  O108  1  0.83482562  0.48502126  0.36495655  1
  O  O109  1  0.83482562  0.48502126  0.86495655  1
  O  O110  1  0.83482562  0.98502126  0.36495655  1
  O  O111  1  0.83482562  0.98502126  0.86495655  1
