# generated using pymatgen
data_VCd2BiO6
_symmetry_space_group_name_H-M   'P 1'
_cell_length_a   8.71171405
_cell_length_b   11.41314308
_cell_length_c   11.21591016
_cell_angle_alpha   90.00000000
_cell_angle_beta   90.00000000
_cell_angle_gamma   90.00000000
_symmetry_Int_Tables_number   1
_chemical_formula_structural   VCd2BiO6
_chemical_formula_sum   'V8 Cd16 Bi8 O48'
_cell_volume   1115.17595216
_cell_formula_units_Z   8
loop_
 _symmetry_equiv_pos_site_id
 _symmetry_equiv_pos_as_xyz
  1  'x, y, z'
loop_
 _atom_site_type_symbol
 _atom_site_label
 _atom_site_symmetry_multiplicity
 _atom_site_fract_x
 _atom_site_fract_y
 _atom_site_fract_z
 _atom_site_occupancy
  V  V0  1  0.50000000  0.32953439  0.25660837  1
  V  V1  1  0.50000000  0.32953439  0.75660837  1
  V  V2  1  1.00000000  0.82953439  0.25660837  1
  V  V3  1  1.00000000  0.82953439  0.75660837  1
  V  V4  1  0.50000000  -0.32953439  0.00660837  1
  V  V5  1  0.50000000  -0.32953439  0.50660837  1
  V  V6  1  1.00000000  0.17046561  0.00660837  1
  V  V7  1  1.00000000  0.17046561  0.50660837  1
  Cd  Cd8  1  0.20292568  -0.11188192  0.01114550  1
  Cd  Cd9  1  0.20292568  -0.11188192  0.51114550  1
  Cd  Cd10  1  0.70292568  0.38811808  0.01114550  1
  Cd  Cd11  1  0.70292568  0.38811808  0.51114550  1
  Cd  Cd12  1  0.79707432  0.11188192  0.26114550  1
  Cd  Cd13  1  0.79707432  0.11188192  0.76114550  1
  Cd  Cd14  1  1.29707432  0.61188192  0.26114550  1
  Cd  Cd15  1  1.29707432  0.61188192  0.76114550  1
  Cd  Cd16  1  0.20292568  0.11188192  0.26114550  1
  Cd  Cd17  1  0.20292568  0.11188192  0.76114550  1
  Cd  Cd18  1  0.70292568  0.61188192  0.26114550  1
  Cd  Cd19  1  0.70292568  0.61188192  0.76114550  1
  Cd  Cd20  1  0.79707432  -0.11188192  0.01114550  1
  Cd  Cd21  1  0.79707432  -0.11188192  0.51114550  1
  Cd  Cd22  1  1.29707432  0.38811808  0.01114550  1
  Cd  Cd23  1  1.29707432  0.38811808  0.51114550  1
  Bi  Bi24  1  0.50000000  0.09764878  0.02068182  1
  Bi  Bi25  1  0.50000000  0.09764878  0.52068182  1
  Bi  Bi26  1  1.00000000  0.59764878  0.02068182  1
  Bi  Bi27  1  1.00000000  0.59764878  0.52068182  1
  Bi  Bi28  1  0.50000000  -0.09764878  0.27068182  1
  Bi  Bi29  1  0.50000000  -0.09764878  0.77068182  1
  Bi  Bi30  1  1.00000000  0.40235122  0.27068182  1
  Bi  Bi31  1  1.00000000  0.40235122  0.77068182  1
  O  O32  1  0.65910944  0.27219096  0.18425081  1
  O  O33  1  0.65910944  0.27219096  0.68425081  1
  O  O34  1  1.15910944  0.77219096  0.18425081  1
  O  O35  1  1.15910944  0.77219096  0.68425081  1
  O  O36  1  0.34089056  -0.27219096  0.43425081  1
  O  O37  1  0.34089056  -0.27219096  0.93425081  1
  O  O38  1  0.84089056  0.22780904  0.43425081  1
  O  O39  1  0.84089056  0.22780904  0.93425081  1
  O  O40  1  0.65910944  -0.27219096  0.43425081  1
  O  O41  1  0.65910944  -0.27219096  0.93425081  1
  O  O42  1  1.15910944  0.22780904  0.43425081  1
  O  O43  1  1.15910944  0.22780904  0.93425081  1
  O  O44  1  0.34089056  0.27219096  0.18425081  1
  O  O45  1  0.34089056  0.27219096  0.68425081  1
  O  O46  1  0.84089056  0.77219096  0.18425081  1
  O  O47  1  0.84089056  0.77219096  0.68425081  1
  O  O48  1  0.34410316  -0.00630471  0.14089075  1
  O  O49  1  0.34410316  -0.00630471  0.64089075  1
  O  O50  1  0.84410316  0.49369529  0.14089075  1
  O  O51  1  0.84410316  0.49369529  0.64089075  1
  O  O52  1  0.65589684  0.00630471  0.39089075  1
  O  O53  1  0.65589684  0.00630471  0.89089075  1
  O  O54  1  1.15589684  0.50630471  0.39089075  1
  O  O55  1  1.15589684  0.50630471  0.89089075  1
  O  O56  1  0.34410316  0.00630471  0.39089075  1
  O  O57  1  0.34410316  0.00630471  0.89089075  1
  O  O58  1  0.84410316  0.50630471  0.39089075  1
  O  O59  1  0.84410316  0.50630471  0.89089075  1
  O  O60  1  0.65589684  -0.00630471  0.14089075  1
  O  O61  1  0.65589684  -0.00630471  0.64089075  1
  O  O62  1  1.15589684  0.49369529  0.14089075  1
  O  O63  1  1.15589684  0.49369529  0.64089075  1
  O  O64  1  0.50000000  0.29522776  0.40843665  1
  O  O65  1  0.50000000  0.29522776  0.90843665  1
  O  O66  1  1.00000000  0.79522776  0.40843665  1
  O  O67  1  1.00000000  0.79522776  0.90843665  1
  O  O68  1  0.50000000  -0.29522776  0.15843665  1
  O  O69  1  0.50000000  -0.29522776  0.65843665  1
  O  O70  1  1.00000000  0.20477224  0.15843665  1
  O  O71  1  1.00000000  0.20477224  0.65843665  1
  O  O72  1  0.50000000  0.47817924  0.24670004  1
  O  O73  1  0.50000000  0.47817924  0.74670004  1
  O  O74  1  1.00000000  0.97817924  0.24670004  1
  O  O75  1  1.00000000  0.97817924  0.74670004  1
  O  O76  1  0.50000000  -0.47817924  0.49670004  1
  O  O77  1  0.50000000  -0.47817924  0.99670004  1
  O  O78  1  1.00000000  0.02182076  0.49670004  1
  O  O79  1  1.00000000  0.02182076  0.99670004  1
