# generated using pymatgen
data_K2CrO4
_symmetry_space_group_name_H-M   'P 1'
_cell_length_a   15.37858293
_cell_length_b   17.71302139
_cell_length_c   20.85413811
_cell_angle_alpha   90.00000000
_cell_angle_beta   90.00000000
_cell_angle_gamma   90.00000000
_symmetry_Int_Tables_number   1
_chemical_formula_structural   K2CrO4
_chemical_formula_sum   'K96 Cr48 O192'
_cell_volume   5680.69158871
_cell_formula_units_Z   48
loop_
 _symmetry_equiv_pos_site_id
 _symmetry_equiv_pos_as_xyz
  1  'x, y, z'
loop_
 _atom_site_type_symbol
 _atom_site_label
 _atom_site_symmetry_multiplicity
 _atom_site_fract_x
 _atom_site_fract_y
 _atom_site_fract_z
 _atom_site_occupancy
  K  K0  1  0.08182107  0.08333333  0.20907259  1
  K  K1  1  0.08182107  0.08333333  0.70907259  1
  K  K2  1  0.08182107  0.41666667  0.20907259  1
  K  K3  1  0.08182107  0.41666667  0.70907259  1
  K  K4  1  0.08182107  0.75000000  0.20907259  1
  K  K5  1  0.08182107  0.75000000  0.70907259  1
  K  K6  1  0.58182107  0.08333333  0.20907259  1
  K  K7  1  0.58182107  0.08333333  0.70907259  1
  K  K8  1  0.58182107  0.41666667  0.20907259  1
  K  K9  1  0.58182107  0.41666667  0.70907259  1
  K  K10  1  0.58182107  0.75000000  0.20907259  1
  K  K11  1  0.58182107  0.75000000  0.70907259  1
  K  K12  1  0.41817893  0.25000000  0.29092741  1
  K  K13  1  0.41817893  0.25000000  0.79092741  1
  K  K14  1  0.41817893  0.58333333  0.29092741  1
  K  K15  1  0.41817893  0.58333333  0.79092741  1
  K  K16  1  0.41817893  0.91666667  0.29092741  1
  K  K17  1  0.41817893  0.91666667  0.79092741  1
  K  K18  1  0.91817893  0.25000000  0.29092741  1
  K  K19  1  0.91817893  0.25000000  0.79092741  1
  K  K20  1  0.91817893  0.58333333  0.29092741  1
  K  K21  1  0.91817893  0.58333333  0.79092741  1
  K  K22  1  0.91817893  0.91666667  0.29092741  1
  K  K23  1  0.91817893  0.91666667  0.79092741  1
  K  K24  1  0.33182107  0.08333333  0.04092741  1
  K  K25  1  0.33182107  0.08333333  0.54092741  1
  K  K26  1  0.33182107  0.41666667  0.04092741  1
  K  K27  1  0.33182107  0.41666667  0.54092741  1
  K  K28  1  0.33182107  0.75000000  0.04092741  1
  K  K29  1  0.33182107  0.75000000  0.54092741  1
  K  K30  1  0.83182107  0.08333333  0.04092741  1
  K  K31  1  0.83182107  0.08333333  0.54092741  1
  K  K32  1  0.83182107  0.41666667  0.04092741  1
  K  K33  1  0.83182107  0.41666667  0.54092741  1
  K  K34  1  0.83182107  0.75000000  0.04092741  1
  K  K35  1  0.83182107  0.75000000  0.54092741  1
  K  K36  1  0.16817893  0.25000000  0.45907259  1
  K  K37  1  0.16817893  0.25000000  0.95907259  1
  K  K38  1  0.16817893  0.58333333  0.45907259  1
  K  K39  1  0.16817893  0.58333333  0.95907259  1
  K  K40  1  0.16817893  0.91666667  0.45907259  1
  K  K41  1  0.16817893  0.91666667  0.95907259  1
  K  K42  1  0.66817893  0.25000000  0.45907259  1
  K  K43  1  0.66817893  0.25000000  0.95907259  1
  K  K44  1  0.66817893  0.58333333  0.45907259  1
  K  K45  1  0.66817893  0.58333333  0.95907259  1
  K  K46  1  0.66817893  0.91666667  0.45907259  1
  K  K47  1  0.66817893  0.91666667  0.95907259  1
  K  K48  1  0.25538800  0.25000000  0.15150153  1
  K  K49  1  0.25538800  0.25000000  0.65150153  1
  K  K50  1  0.25538800  0.58333333  0.15150153  1
  K  K51  1  0.25538800  0.58333333  0.65150153  1
  K  K52  1  0.25538800  0.91666667  0.15150153  1
  K  K53  1  0.25538800  0.91666667  0.65150153  1
  K  K54  1  0.75538800  0.25000000  0.15150153  1
  K  K55  1  0.75538800  0.25000000  0.65150153  1
  K  K56  1  0.75538800  0.58333333  0.15150153  1
  K  K57  1  0.75538800  0.58333333  0.65150153  1
  K  K58  1  0.75538800  0.91666667  0.15150153  1
  K  K59  1  0.75538800  0.91666667  0.65150153  1
  K  K60  1  0.24461200  0.08333333  0.34849847  1
  K  K61  1  0.24461200  0.08333333  0.84849847  1
  K  K62  1  0.24461200  0.41666667  0.34849847  1
  K  K63  1  0.24461200  0.41666667  0.84849847  1
  K  K64  1  0.24461200  0.75000000  0.34849847  1
  K  K65  1  0.24461200  0.75000000  0.84849847  1
  K  K66  1  0.74461200  0.08333333  0.34849847  1
  K  K67  1  0.74461200  0.08333333  0.84849847  1
  K  K68  1  0.74461200  0.41666667  0.34849847  1
  K  K69  1  0.74461200  0.41666667  0.84849847  1
  K  K70  1  0.74461200  0.75000000  0.34849847  1
  K  K71  1  0.74461200  0.75000000  0.84849847  1
  K  K72  1  0.00538800  0.25000000  0.09849847  1
  K  K73  1  0.00538800  0.25000000  0.59849847  1
  K  K74  1  0.00538800  0.58333333  0.09849847  1
  K  K75  1  0.00538800  0.58333333  0.59849847  1
  K  K76  1  0.00538800  0.91666667  0.09849847  1
  K  K77  1  0.00538800  0.91666667  0.59849847  1
  K  K78  1  0.50538800  0.25000000  0.09849847  1
  K  K79  1  0.50538800  0.25000000  0.59849847  1
  K  K80  1  0.50538800  0.58333333  0.09849847  1
  K  K81  1  0.50538800  0.58333333  0.59849847  1
  K  K82  1  0.50538800  0.91666667  0.09849847  1
  K  K83  1  0.50538800  0.91666667  0.59849847  1
  K  K84  1  0.49461200  0.08333333  0.40150153  1
  K  K85  1  0.49461200  0.08333333  0.90150153  1
  K  K86  1  0.49461200  0.41666667  0.40150153  1
  K  K87  1  0.49461200  0.41666667  0.90150153  1
  K  K88  1  0.49461200  0.75000000  0.40150153  1
  K  K89  1  0.49461200  0.75000000  0.90150153  1
  K  K90  1  0.99461200  0.08333333  0.40150153  1
  K  K91  1  0.99461200  0.08333333  0.90150153  1
  K  K92  1  0.99461200  0.41666667  0.40150153  1
  K  K93  1  0.99461200  0.41666667  0.90150153  1
  K  K94  1  0.99461200  0.75000000  0.40150153  1
  K  K95  1  0.99461200  0.75000000  0.90150153  1
  Cr  Cr96  1  0.36432915  0.08333333  0.21062258  1
  Cr  Cr97  1  0.36432915  0.08333333  0.71062258  1
  Cr  Cr98  1  0.36432915  0.41666667  0.21062258  1
  Cr  Cr99  1  0.36432915  0.41666667  0.71062258  1
  Cr  Cr100  1  0.36432915  0.75000000  0.21062258  1
  Cr  Cr101  1  0.36432915  0.75000000  0.71062258  1
  Cr  Cr102  1  0.86432915  0.08333333  0.21062258  1
  Cr  Cr103  1  0.86432915  0.08333333  0.71062258  1
  Cr  Cr104  1  0.86432915  0.41666667  0.21062258  1
  Cr  Cr105  1  0.86432915  0.41666667  0.71062258  1
  Cr  Cr106  1  0.86432915  0.75000000  0.21062258  1
  Cr  Cr107  1  0.86432915  0.75000000  0.71062258  1
  Cr  Cr108  1  0.13567085  0.25000000  0.28937742  1
  Cr  Cr109  1  0.13567085  0.25000000  0.78937742  1
  Cr  Cr110  1  0.13567085  0.58333333  0.28937742  1
  Cr  Cr111  1  0.13567085  0.58333333  0.78937742  1
  Cr  Cr112  1  0.13567085  0.91666667  0.28937742  1
  Cr  Cr113  1  0.13567085  0.91666667  0.78937742  1
  Cr  Cr114  1  0.63567085  0.25000000  0.28937742  1
  Cr  Cr115  1  0.63567085  0.25000000  0.78937742  1
  Cr  Cr116  1  0.63567085  0.58333333  0.28937742  1
  Cr  Cr117  1  0.63567085  0.58333333  0.78937742  1
  Cr  Cr118  1  0.63567085  0.91666667  0.28937742  1
  Cr  Cr119  1  0.63567085  0.91666667  0.78937742  1
  Cr  Cr120  1  0.11432915  0.08333333  0.03937742  1
  Cr  Cr121  1  0.11432915  0.08333333  0.53937742  1
  Cr  Cr122  1  0.11432915  0.41666667  0.03937742  1
  Cr  Cr123  1  0.11432915  0.41666667  0.53937742  1
  Cr  Cr124  1  0.11432915  0.75000000  0.03937742  1
  Cr  Cr125  1  0.11432915  0.75000000  0.53937742  1
  Cr  Cr126  1  0.61432915  0.08333333  0.03937742  1
  Cr  Cr127  1  0.61432915  0.08333333  0.53937742  1
  Cr  Cr128  1  0.61432915  0.41666667  0.03937742  1
  Cr  Cr129  1  0.61432915  0.41666667  0.53937742  1
  Cr  Cr130  1  0.61432915  0.75000000  0.03937742  1
  Cr  Cr131  1  0.61432915  0.75000000  0.53937742  1
  Cr  Cr132  1  0.38567085  0.25000000  0.46062258  1
  Cr  Cr133  1  0.38567085  0.25000000  0.96062258  1
  Cr  Cr134  1  0.38567085  0.58333333  0.46062258  1
  Cr  Cr135  1  0.38567085  0.58333333  0.96062258  1
  Cr  Cr136  1  0.38567085  0.91666667  0.46062258  1
  Cr  Cr137  1  0.38567085  0.91666667  0.96062258  1
  Cr  Cr138  1  0.88567085  0.25000000  0.46062258  1
  Cr  Cr139  1  0.88567085  0.25000000  0.96062258  1
  Cr  Cr140  1  0.88567085  0.58333333  0.46062258  1
  Cr  Cr141  1  0.88567085  0.58333333  0.96062258  1
  Cr  Cr142  1  0.88567085  0.91666667  0.46062258  1
  Cr  Cr143  1  0.88567085  0.91666667  0.96062258  1
  O  O144  1  0.15119794  0.15974469  0.07645832  1
  O  O145  1  0.15119794  0.15974469  0.57645832  1
  O  O146  1  0.15119794  0.49307802  0.07645832  1
  O  O147  1  0.15119794  0.49307802  0.57645832  1
  O  O148  1  0.15119794  0.82641136  0.07645832  1
  O  O149  1  0.15119794  0.82641136  0.57645832  1
  O  O150  1  0.65119794  0.15974469  0.07645832  1
  O  O151  1  0.65119794  0.15974469  0.57645832  1
  O  O152  1  0.65119794  0.49307802  0.07645832  1
  O  O153  1  0.65119794  0.49307802  0.57645832  1
  O  O154  1  0.65119794  0.82641136  0.07645832  1
  O  O155  1  0.65119794  0.82641136  0.57645832  1
  O  O156  1  0.34880206  0.32641136  0.42354168  1
  O  O157  1  0.34880206  0.32641136  0.92354168  1
  O  O158  1  0.34880206  0.65974469  0.42354168  1
  O  O159  1  0.34880206  0.65974469  0.92354168  1
  O  O160  1  0.34880206  0.99307802  0.42354168  1
  O  O161  1  0.34880206  0.99307802  0.92354168  1
  O  O162  1  0.84880206  0.32641136  0.42354168  1
  O  O163  1  0.84880206  0.32641136  0.92354168  1
  O  O164  1  0.84880206  0.65974469  0.42354168  1
  O  O165  1  0.84880206  0.65974469  0.92354168  1
  O  O166  1  0.84880206  0.99307802  0.42354168  1
  O  O167  1  0.84880206  0.99307802  0.92354168  1
  O  O168  1  0.40119794  0.00692198  0.17354168  1
  O  O169  1  0.40119794  0.00692198  0.67354168  1
  O  O170  1  0.40119794  0.34025531  0.17354168  1
  O  O171  1  0.40119794  0.34025531  0.67354168  1
  O  O172  1  0.40119794  0.67358864  0.17354168  1
  O  O173  1  0.40119794  0.67358864  0.67354168  1
  O  O174  1  0.90119794  0.00692198  0.17354168  1
  O  O175  1  0.90119794  0.00692198  0.67354168  1
  O  O176  1  0.90119794  0.34025531  0.17354168  1
  O  O177  1  0.90119794  0.34025531  0.67354168  1
  O  O178  1  0.90119794  0.67358864  0.17354168  1
  O  O179  1  0.90119794  0.67358864  0.67354168  1
  O  O180  1  0.09880206  0.17358864  0.32645832  1
  O  O181  1  0.09880206  0.17358864  0.82645832  1
  O  O182  1  0.09880206  0.50692198  0.32645832  1
  O  O183  1  0.09880206  0.50692198  0.82645832  1
  O  O184  1  0.09880206  0.84025531  0.32645832  1
  O  O185  1  0.09880206  0.84025531  0.82645832  1
  O  O186  1  0.59880206  0.17358864  0.32645832  1
  O  O187  1  0.59880206  0.17358864  0.82645832  1
  O  O188  1  0.59880206  0.50692198  0.32645832  1
  O  O189  1  0.59880206  0.50692198  0.82645832  1
  O  O190  1  0.59880206  0.84025531  0.32645832  1
  O  O191  1  0.59880206  0.84025531  0.82645832  1
  O  O192  1  0.34880206  0.17358864  0.42354168  1
  O  O193  1  0.34880206  0.17358864  0.92354168  1
  O  O194  1  0.34880206  0.50692198  0.42354168  1
  O  O195  1  0.34880206  0.50692198  0.92354168  1
  O  O196  1  0.34880206  0.84025531  0.42354168  1
  O  O197  1  0.34880206  0.84025531  0.92354168  1
  O  O198  1  0.84880206  0.17358864  0.42354168  1
  O  O199  1  0.84880206  0.17358864  0.92354168  1
  O  O200  1  0.84880206  0.50692198  0.42354168  1
  O  O201  1  0.84880206  0.50692198  0.92354168  1
  O  O202  1  0.84880206  0.84025531  0.42354168  1
  O  O203  1  0.84880206  0.84025531  0.92354168  1
  O  O204  1  0.15119794  0.00692198  0.07645832  1
  O  O205  1  0.15119794  0.00692198  0.57645832  1
  O  O206  1  0.15119794  0.34025531  0.07645832  1
  O  O207  1  0.15119794  0.34025531  0.57645832  1
  O  O208  1  0.15119794  0.67358864  0.07645832  1
  O  O209  1  0.15119794  0.67358864  0.57645832  1
  O  O210  1  0.65119794  0.00692198  0.07645832  1
  O  O211  1  0.65119794  0.00692198  0.57645832  1
  O  O212  1  0.65119794  0.34025531  0.07645832  1
  O  O213  1  0.65119794  0.34025531  0.57645832  1
  O  O214  1  0.65119794  0.67358864  0.07645832  1
  O  O215  1  0.65119794  0.67358864  0.57645832  1
  O  O216  1  0.09880206  0.32641136  0.32645832  1
  O  O217  1  0.09880206  0.32641136  0.82645832  1
  O  O218  1  0.09880206  0.65974469  0.32645832  1
  O  O219  1  0.09880206  0.65974469  0.82645832  1
  O  O220  1  0.09880206  0.99307802  0.32645832  1
  O  O221  1  0.09880206  0.99307802  0.82645832  1
  O  O222  1  0.59880206  0.32641136  0.32645832  1
  O  O223  1  0.59880206  0.32641136  0.82645832  1
  O  O224  1  0.59880206  0.65974469  0.32645832  1
  O  O225  1  0.59880206  0.65974469  0.82645832  1
  O  O226  1  0.59880206  0.99307802  0.32645832  1
  O  O227  1  0.59880206  0.99307802  0.82645832  1
  O  O228  1  0.40119794  0.15974469  0.17354168  1
  O  O229  1  0.40119794  0.15974469  0.67354168  1
  O  O230  1  0.40119794  0.49307802  0.17354168  1
  O  O231  1  0.40119794  0.49307802  0.67354168  1
  O  O232  1  0.40119794  0.82641136  0.17354168  1
  O  O233  1  0.40119794  0.82641136  0.67354168  1
  O  O234  1  0.90119794  0.15974469  0.17354168  1
  O  O235  1  0.90119794  0.15974469  0.67354168  1
  O  O236  1  0.90119794  0.49307802  0.17354168  1
  O  O237  1  0.90119794  0.49307802  0.67354168  1
  O  O238  1  0.90119794  0.82641136  0.17354168  1
  O  O239  1  0.90119794  0.82641136  0.67354168  1
  O  O240  1  0.34823326  0.25000000  0.03549999  1
  O  O241  1  0.34823326  0.25000000  0.53549999  1
  O  O242  1  0.34823326  0.58333333  0.03549999  1
  O  O243  1  0.34823326  0.58333333  0.53549999  1
  O  O244  1  0.34823326  0.91666667  0.03549999  1
  O  O245  1  0.34823326  0.91666667  0.53549999  1
  O  O246  1  0.84823326  0.25000000  0.03549999  1
  O  O247  1  0.84823326  0.25000000  0.53549999  1
  O  O248  1  0.84823326  0.58333333  0.03549999  1
  O  O249  1  0.84823326  0.58333333  0.53549999  1
  O  O250  1  0.84823326  0.91666667  0.03549999  1
  O  O251  1  0.84823326  0.91666667  0.53549999  1
  O  O252  1  0.15176674  0.08333333  0.46450001  1
  O  O253  1  0.15176674  0.08333333  0.96450001  1
  O  O254  1  0.15176674  0.41666667  0.46450001  1
  O  O255  1  0.15176674  0.41666667  0.96450001  1
  O  O256  1  0.15176674  0.75000000  0.46450001  1
  O  O257  1  0.15176674  0.75000000  0.96450001  1
  O  O258  1  0.65176674  0.08333333  0.46450001  1
  O  O259  1  0.65176674  0.08333333  0.96450001  1
  O  O260  1  0.65176674  0.41666667  0.46450001  1
  O  O261  1  0.65176674  0.41666667  0.96450001  1
  O  O262  1  0.65176674  0.75000000  0.46450001  1
  O  O263  1  0.65176674  0.75000000  0.96450001  1
  O  O264  1  0.09823326  0.25000000  0.21450001  1
  O  O265  1  0.09823326  0.25000000  0.71450001  1
  O  O266  1  0.09823326  0.58333333  0.21450001  1
  O  O267  1  0.09823326  0.58333333  0.71450001  1
  O  O268  1  0.09823326  0.91666667  0.21450001  1
  O  O269  1  0.09823326  0.91666667  0.71450001  1
  O  O270  1  0.59823326  0.25000000  0.21450001  1
  O  O271  1  0.59823326  0.25000000  0.71450001  1
  O  O272  1  0.59823326  0.58333333  0.21450001  1
  O  O273  1  0.59823326  0.58333333  0.71450001  1
  O  O274  1  0.59823326  0.91666667  0.21450001  1
  O  O275  1  0.59823326  0.91666667  0.71450001  1
  O  O276  1  0.40176674  0.08333333  0.28549999  1
  O  O277  1  0.40176674  0.08333333  0.78549999  1
  O  O278  1  0.40176674  0.41666667  0.28549999  1
  O  O279  1  0.40176674  0.41666667  0.78549999  1
  O  O280  1  0.40176674  0.75000000  0.28549999  1
  O  O281  1  0.40176674  0.75000000  0.78549999  1
  O  O282  1  0.90176674  0.08333333  0.28549999  1
  O  O283  1  0.90176674  0.08333333  0.78549999  1
  O  O284  1  0.90176674  0.41666667  0.28549999  1
  O  O285  1  0.90176674  0.41666667  0.78549999  1
  O  O286  1  0.90176674  0.75000000  0.28549999  1
  O  O287  1  0.90176674  0.75000000  0.78549999  1
  O  O288  1  0.25683917  0.08333333  0.21043890  1
  O  O289  1  0.25683917  0.08333333  0.71043890  1
  O  O290  1  0.25683917  0.41666667  0.21043890  1
  O  O291  1  0.25683917  0.41666667  0.71043890  1
  O  O292  1  0.25683917  0.75000000  0.21043890  1
  O  O293  1  0.25683917  0.75000000  0.71043890  1
  O  O294  1  0.75683917  0.08333333  0.21043890  1
  O  O295  1  0.75683917  0.08333333  0.71043890  1
  O  O296  1  0.75683917  0.41666667  0.21043890  1
  O  O297  1  0.75683917  0.41666667  0.71043890  1
  O  O298  1  0.75683917  0.75000000  0.21043890  1
  O  O299  1  0.75683917  0.75000000  0.71043890  1
  O  O300  1  0.24316083  0.25000000  0.28956110  1
  O  O301  1  0.24316083  0.25000000  0.78956110  1
  O  O302  1  0.24316083  0.58333333  0.28956110  1
  O  O303  1  0.24316083  0.58333333  0.78956110  1
  O  O304  1  0.24316083  0.91666667  0.28956110  1
  O  O305  1  0.24316083  0.91666667  0.78956110  1
  O  O306  1  0.74316083  0.25000000  0.28956110  1
  O  O307  1  0.74316083  0.25000000  0.78956110  1
  O  O308  1  0.74316083  0.58333333  0.28956110  1
  O  O309  1  0.74316083  0.58333333  0.78956110  1
  O  O310  1  0.74316083  0.91666667  0.28956110  1
  O  O311  1  0.74316083  0.91666667  0.78956110  1
  O  O312  1  0.00683917  0.08333333  0.03956110  1
  O  O313  1  0.00683917  0.08333333  0.53956110  1
  O  O314  1  0.00683917  0.41666667  0.03956110  1
  O  O315  1  0.00683917  0.41666667  0.53956110  1
  O  O316  1  0.00683917  0.75000000  0.03956110  1
  O  O317  1  0.00683917  0.75000000  0.53956110  1
  O  O318  1  0.50683917  0.08333333  0.03956110  1
  O  O319  1  0.50683917  0.08333333  0.53956110  1
  O  O320  1  0.50683917  0.41666667  0.03956110  1
  O  O321  1  0.50683917  0.41666667  0.53956110  1
  O  O322  1  0.50683917  0.75000000  0.03956110  1
  O  O323  1  0.50683917  0.75000000  0.53956110  1
  O  O324  1  0.49316083  0.25000000  0.46043890  1
  O  O325  1  0.49316083  0.25000000  0.96043890  1
  O  O326  1  0.49316083  0.58333333  0.46043890  1
  O  O327  1  0.49316083  0.58333333  0.96043890  1
  O  O328  1  0.49316083  0.91666667  0.46043890  1
  O  O329  1  0.49316083  0.91666667  0.96043890  1
  O  O330  1  0.99316083  0.25000000  0.46043890  1
  O  O331  1  0.99316083  0.25000000  0.96043890  1
  O  O332  1  0.99316083  0.58333333  0.46043890  1
  O  O333  1  0.99316083  0.58333333  0.96043890  1
  O  O334  1  0.99316083  0.91666667  0.46043890  1
  O  O335  1  0.99316083  0.91666667  0.96043890  1
