# generated using pymatgen
data_RbTaO3
_symmetry_space_group_name_H-M   'P 1'
_cell_length_a   19.21011514
_cell_length_b   17.03570509
_cell_length_c   16.23859313
_cell_angle_alpha   90.00000000
_cell_angle_beta   95.21731075
_cell_angle_gamma   90.00000000
_symmetry_Int_Tables_number   1
_chemical_formula_structural   RbTaO3
_chemical_formula_sum   'Rb64 Ta64 O192'
_cell_volume   5292.19025908
_cell_formula_units_Z   64
loop_
 _symmetry_equiv_pos_site_id
 _symmetry_equiv_pos_as_xyz
  1  'x, y, z'
loop_
 _atom_site_type_symbol
 _atom_site_label
 _atom_site_symmetry_multiplicity
 _atom_site_fract_x
 _atom_site_fract_y
 _atom_site_fract_z
 _atom_site_occupancy
  Rb  Rb0  1  0.33039797  -0.00000000  0.11795323  1
  Rb  Rb1  1  0.33039797  -0.00000000  0.61795323  1
  Rb  Rb2  1  0.33039797  0.50000000  0.11795323  1
  Rb  Rb3  1  0.33039797  0.50000000  0.61795323  1
  Rb  Rb4  1  0.83039797  -0.00000000  0.11795323  1
  Rb  Rb5  1  0.83039797  -0.00000000  0.61795323  1
  Rb  Rb6  1  0.83039797  0.50000000  0.11795323  1
  Rb  Rb7  1  0.83039797  0.50000000  0.61795323  1
  Rb  Rb8  1  0.58039797  0.25000000  0.11795323  1
  Rb  Rb9  1  0.58039797  0.25000000  0.61795323  1
  Rb  Rb10  1  0.58039797  0.75000000  0.11795323  1
  Rb  Rb11  1  0.58039797  0.75000000  0.61795323  1
  Rb  Rb12  1  1.08039797  0.25000000  0.11795323  1
  Rb  Rb13  1  1.08039797  0.25000000  0.61795323  1
  Rb  Rb14  1  1.08039797  0.75000000  0.11795323  1
  Rb  Rb15  1  1.08039797  0.75000000  0.61795323  1
  Rb  Rb16  1  0.16960203  -0.00000000  0.38204677  1
  Rb  Rb17  1  0.16960203  -0.00000000  0.88204677  1
  Rb  Rb18  1  0.16960203  0.50000000  0.38204677  1
  Rb  Rb19  1  0.16960203  0.50000000  0.88204677  1
  Rb  Rb20  1  0.66960203  -0.00000000  0.38204677  1
  Rb  Rb21  1  0.66960203  -0.00000000  0.88204677  1
  Rb  Rb22  1  0.66960203  0.50000000  0.38204677  1
  Rb  Rb23  1  0.66960203  0.50000000  0.88204677  1
  Rb  Rb24  1  0.41960203  0.25000000  0.38204677  1
  Rb  Rb25  1  0.41960203  0.25000000  0.88204677  1
  Rb  Rb26  1  0.41960203  0.75000000  0.38204677  1
  Rb  Rb27  1  0.41960203  0.75000000  0.88204677  1
  Rb  Rb28  1  0.91960203  0.25000000  0.38204677  1
  Rb  Rb29  1  0.91960203  0.25000000  0.88204677  1
  Rb  Rb30  1  0.91960203  0.75000000  0.38204677  1
  Rb  Rb31  1  0.91960203  0.75000000  0.88204677  1
  Rb  Rb32  1  0.25000000  0.13108494  0.25000000  1
  Rb  Rb33  1  0.25000000  0.13108494  0.75000000  1
  Rb  Rb34  1  0.25000000  0.63108494  0.25000000  1
  Rb  Rb35  1  0.25000000  0.63108494  0.75000000  1
  Rb  Rb36  1  0.75000000  0.13108494  0.25000000  1
  Rb  Rb37  1  0.75000000  0.13108494  0.75000000  1
  Rb  Rb38  1  0.75000000  0.63108494  0.25000000  1
  Rb  Rb39  1  0.75000000  0.63108494  0.75000000  1
  Rb  Rb40  1  0.50000000  0.38108494  0.25000000  1
  Rb  Rb41  1  0.50000000  0.38108494  0.75000000  1
  Rb  Rb42  1  0.50000000  0.88108494  0.25000000  1
  Rb  Rb43  1  0.50000000  0.88108494  0.75000000  1
  Rb  Rb44  1  1.00000000  0.38108494  0.25000000  1
  Rb  Rb45  1  1.00000000  0.38108494  0.75000000  1
  Rb  Rb46  1  1.00000000  0.88108494  0.25000000  1
  Rb  Rb47  1  1.00000000  0.88108494  0.75000000  1
  Rb  Rb48  1  0.25000000  -0.13108494  0.25000000  1
  Rb  Rb49  1  0.25000000  -0.13108494  0.75000000  1
  Rb  Rb50  1  0.25000000  0.36891506  0.25000000  1
  Rb  Rb51  1  0.25000000  0.36891506  0.75000000  1
  Rb  Rb52  1  0.75000000  -0.13108494  0.25000000  1
  Rb  Rb53  1  0.75000000  -0.13108494  0.75000000  1
  Rb  Rb54  1  0.75000000  0.36891506  0.25000000  1
  Rb  Rb55  1  0.75000000  0.36891506  0.75000000  1
  Rb  Rb56  1  0.50000000  0.11891506  0.25000000  1
  Rb  Rb57  1  0.50000000  0.11891506  0.75000000  1
  Rb  Rb58  1  0.50000000  0.61891506  0.25000000  1
  Rb  Rb59  1  0.50000000  0.61891506  0.75000000  1
  Rb  Rb60  1  1.00000000  0.11891506  0.25000000  1
  Rb  Rb61  1  1.00000000  0.11891506  0.75000000  1
  Rb  Rb62  1  1.00000000  0.61891506  0.25000000  1
  Rb  Rb63  1  1.00000000  0.61891506  0.75000000  1
  Ta  Ta64  1  0.25000000  0.15547674  0.00000000  1
  Ta  Ta65  1  0.25000000  0.15547674  0.50000000  1
  Ta  Ta66  1  0.25000000  0.65547674  0.00000000  1
  Ta  Ta67  1  0.25000000  0.65547674  0.50000000  1
  Ta  Ta68  1  0.75000000  0.15547674  0.00000000  1
  Ta  Ta69  1  0.75000000  0.15547674  0.50000000  1
  Ta  Ta70  1  0.75000000  0.65547674  0.00000000  1
  Ta  Ta71  1  0.75000000  0.65547674  0.50000000  1
  Ta  Ta72  1  0.50000000  0.40547674  0.00000000  1
  Ta  Ta73  1  0.50000000  0.40547674  0.50000000  1
  Ta  Ta74  1  0.50000000  0.90547674  0.00000000  1
  Ta  Ta75  1  0.50000000  0.90547674  0.50000000  1
  Ta  Ta76  1  1.00000000  0.40547674  0.00000000  1
  Ta  Ta77  1  1.00000000  0.40547674  0.50000000  1
  Ta  Ta78  1  1.00000000  0.90547674  0.00000000  1
  Ta  Ta79  1  1.00000000  0.90547674  0.50000000  1
  Ta  Ta80  1  0.25000000  -0.15547674  0.00000000  1
  Ta  Ta81  1  0.25000000  -0.15547674  0.50000000  1
  Ta  Ta82  1  0.25000000  0.34452326  0.00000000  1
  Ta  Ta83  1  0.25000000  0.34452326  0.50000000  1
  Ta  Ta84  1  0.75000000  -0.15547674  0.00000000  1
  Ta  Ta85  1  0.75000000  -0.15547674  0.50000000  1
  Ta  Ta86  1  0.75000000  0.34452326  0.00000000  1
  Ta  Ta87  1  0.75000000  0.34452326  0.50000000  1
  Ta  Ta88  1  0.50000000  0.09452326  0.00000000  1
  Ta  Ta89  1  0.50000000  0.09452326  0.50000000  1
  Ta  Ta90  1  0.50000000  0.59452326  0.00000000  1
  Ta  Ta91  1  0.50000000  0.59452326  0.50000000  1
  Ta  Ta92  1  1.00000000  0.09452326  0.00000000  1
  Ta  Ta93  1  1.00000000  0.09452326  0.50000000  1
  Ta  Ta94  1  1.00000000  0.59452326  0.00000000  1
  Ta  Ta95  1  1.00000000  0.59452326  0.50000000  1
  Ta  Ta96  1  0.37019856  0.00000000  0.40175391  1
  Ta  Ta97  1  0.37019856  0.00000000  0.90175391  1
  Ta  Ta98  1  0.37019856  0.50000000  0.40175391  1
  Ta  Ta99  1  0.37019856  0.50000000  0.90175391  1
  Ta  Ta100  1  0.87019856  0.00000000  0.40175391  1
  Ta  Ta101  1  0.87019856  0.00000000  0.90175391  1
  Ta  Ta102  1  0.87019856  0.50000000  0.40175391  1
  Ta  Ta103  1  0.87019856  0.50000000  0.90175391  1
  Ta  Ta104  1  0.62019856  0.25000000  0.40175391  1
  Ta  Ta105  1  0.62019856  0.25000000  0.90175391  1
  Ta  Ta106  1  0.62019856  0.75000000  0.40175391  1
  Ta  Ta107  1  0.62019856  0.75000000  0.90175391  1
  Ta  Ta108  1  1.12019856  0.25000000  0.40175391  1
  Ta  Ta109  1  1.12019856  0.25000000  0.90175391  1
  Ta  Ta110  1  1.12019856  0.75000000  0.40175391  1
  Ta  Ta111  1  1.12019856  0.75000000  0.90175391  1
  Ta  Ta112  1  0.12980144  -0.00000000  0.09824609  1
  Ta  Ta113  1  0.12980144  -0.00000000  0.59824609  1
  Ta  Ta114  1  0.12980144  0.50000000  0.09824609  1
  Ta  Ta115  1  0.12980144  0.50000000  0.59824609  1
  Ta  Ta116  1  0.62980144  -0.00000000  0.09824609  1
  Ta  Ta117  1  0.62980144  -0.00000000  0.59824609  1
  Ta  Ta118  1  0.62980144  0.50000000  0.09824609  1
  Ta  Ta119  1  0.62980144  0.50000000  0.59824609  1
  Ta  Ta120  1  0.37980144  0.25000000  0.09824609  1
  Ta  Ta121  1  0.37980144  0.25000000  0.59824609  1
  Ta  Ta122  1  0.37980144  0.75000000  0.09824609  1
  Ta  Ta123  1  0.37980144  0.75000000  0.59824609  1
  Ta  Ta124  1  0.87980144  0.25000000  0.09824609  1
  Ta  Ta125  1  0.87980144  0.25000000  0.59824609  1
  Ta  Ta126  1  0.87980144  0.75000000  0.09824609  1
  Ta  Ta127  1  0.87980144  0.75000000  0.59824609  1
  O  O128  1  0.06180096  -0.00000000  0.47447260  1
  O  O129  1  0.06180096  -0.00000000  0.97447260  1
  O  O130  1  0.06180096  0.50000000  0.47447260  1
  O  O131  1  0.06180096  0.50000000  0.97447260  1
  O  O132  1  0.56180096  -0.00000000  0.47447260  1
  O  O133  1  0.56180096  -0.00000000  0.97447260  1
  O  O134  1  0.56180096  0.50000000  0.47447260  1
  O  O135  1  0.56180096  0.50000000  0.97447260  1
  O  O136  1  0.31180096  0.25000000  0.47447260  1
  O  O137  1  0.31180096  0.25000000  0.97447260  1
  O  O138  1  0.31180096  0.75000000  0.47447260  1
  O  O139  1  0.31180096  0.75000000  0.97447260  1
  O  O140  1  0.81180096  0.25000000  0.47447260  1
  O  O141  1  0.81180096  0.25000000  0.97447260  1
  O  O142  1  0.81180096  0.75000000  0.47447260  1
  O  O143  1  0.81180096  0.75000000  0.97447260  1
  O  O144  1  0.43819904  0.00000000  0.02552740  1
  O  O145  1  0.43819904  0.00000000  0.52552740  1
  O  O146  1  0.43819904  0.50000000  0.02552740  1
  O  O147  1  0.43819904  0.50000000  0.52552740  1
  O  O148  1  0.93819904  0.00000000  0.02552740  1
  O  O149  1  0.93819904  0.00000000  0.52552740  1
  O  O150  1  0.93819904  0.50000000  0.02552740  1
  O  O151  1  0.93819904  0.50000000  0.52552740  1
  O  O152  1  0.68819904  0.25000000  0.02552740  1
  O  O153  1  0.68819904  0.25000000  0.52552740  1
  O  O154  1  0.68819904  0.75000000  0.02552740  1
  O  O155  1  0.68819904  0.75000000  0.52552740  1
  O  O156  1  1.18819904  0.25000000  0.02552740  1
  O  O157  1  1.18819904  0.25000000  0.52552740  1
  O  O158  1  1.18819904  0.75000000  0.02552740  1
  O  O159  1  1.18819904  0.75000000  0.52552740  1
  O  O160  1  0.30717725  -0.07992193  0.44896106  1
  O  O161  1  0.30717725  -0.07992193  0.94896106  1
  O  O162  1  0.30717725  0.42007807  0.44896106  1
  O  O163  1  0.30717725  0.42007807  0.94896106  1
  O  O164  1  0.80717725  -0.07992193  0.44896106  1
  O  O165  1  0.80717725  -0.07992193  0.94896106  1
  O  O166  1  0.80717725  0.42007807  0.44896106  1
  O  O167  1  0.80717725  0.42007807  0.94896106  1
  O  O168  1  0.55717725  0.17007807  0.44896106  1
  O  O169  1  0.55717725  0.17007807  0.94896106  1
  O  O170  1  0.55717725  0.67007807  0.44896106  1
  O  O171  1  0.55717725  0.67007807  0.94896106  1
  O  O172  1  1.05717725  0.17007807  0.44896106  1
  O  O173  1  1.05717725  0.17007807  0.94896106  1
  O  O174  1  1.05717725  0.67007807  0.44896106  1
  O  O175  1  1.05717725  0.67007807  0.94896106  1
  O  O176  1  0.19282275  -0.07992193  0.05103894  1
  O  O177  1  0.19282275  -0.07992193  0.55103894  1
  O  O178  1  0.19282275  0.42007807  0.05103894  1
  O  O179  1  0.19282275  0.42007807  0.55103894  1
  O  O180  1  0.69282275  -0.07992193  0.05103894  1
  O  O181  1  0.69282275  -0.07992193  0.55103894  1
  O  O182  1  0.69282275  0.42007807  0.05103894  1
  O  O183  1  0.69282275  0.42007807  0.55103894  1
  O  O184  1  0.44282275  0.17007807  0.05103894  1
  O  O185  1  0.44282275  0.17007807  0.55103894  1
  O  O186  1  0.44282275  0.67007807  0.05103894  1
  O  O187  1  0.44282275  0.67007807  0.55103894  1
  O  O188  1  0.94282275  0.17007807  0.05103894  1
  O  O189  1  0.94282275  0.17007807  0.55103894  1
  O  O190  1  0.94282275  0.67007807  0.05103894  1
  O  O191  1  0.94282275  0.67007807  0.55103894  1
  O  O192  1  0.19282275  0.07992193  0.05103894  1
  O  O193  1  0.19282275  0.07992193  0.55103894  1
  O  O194  1  0.19282275  0.57992193  0.05103894  1
  O  O195  1  0.19282275  0.57992193  0.55103894  1
  O  O196  1  0.69282275  0.07992193  0.05103894  1
  O  O197  1  0.69282275  0.07992193  0.55103894  1
  O  O198  1  0.69282275  0.57992193  0.05103894  1
  O  O199  1  0.69282275  0.57992193  0.55103894  1
  O  O200  1  0.44282275  0.32992193  0.05103894  1
  O  O201  1  0.44282275  0.32992193  0.55103894  1
  O  O202  1  0.44282275  0.82992193  0.05103894  1
  O  O203  1  0.44282275  0.82992193  0.55103894  1
  O  O204  1  0.94282275  0.32992193  0.05103894  1
  O  O205  1  0.94282275  0.32992193  0.55103894  1
  O  O206  1  0.94282275  0.82992193  0.05103894  1
  O  O207  1  0.94282275  0.82992193  0.55103894  1
  O  O208  1  0.30717725  0.07992193  0.44896106  1
  O  O209  1  0.30717725  0.07992193  0.94896106  1
  O  O210  1  0.30717725  0.57992193  0.44896106  1
  O  O211  1  0.30717725  0.57992193  0.94896106  1
  O  O212  1  0.80717725  0.07992193  0.44896106  1
  O  O213  1  0.80717725  0.07992193  0.94896106  1
  O  O214  1  0.80717725  0.57992193  0.44896106  1
  O  O215  1  0.80717725  0.57992193  0.94896106  1
  O  O216  1  0.55717725  0.32992193  0.44896106  1
  O  O217  1  0.55717725  0.32992193  0.94896106  1
  O  O218  1  0.55717725  0.82992193  0.44896106  1
  O  O219  1  0.55717725  0.82992193  0.94896106  1
  O  O220  1  1.05717725  0.32992193  0.44896106  1
  O  O221  1  1.05717725  0.32992193  0.94896106  1
  O  O222  1  1.05717725  0.82992193  0.44896106  1
  O  O223  1  1.05717725  0.82992193  0.94896106  1
  O  O224  1  0.16612774  -0.00000000  0.20593833  1
  O  O225  1  0.16612774  -0.00000000  0.70593833  1
  O  O226  1  0.16612774  0.50000000  0.20593833  1
  O  O227  1  0.16612774  0.50000000  0.70593833  1
  O  O228  1  0.66612774  -0.00000000  0.20593833  1
  O  O229  1  0.66612774  -0.00000000  0.70593833  1
  O  O230  1  0.66612774  0.50000000  0.20593833  1
  O  O231  1  0.66612774  0.50000000  0.70593833  1
  O  O232  1  0.41612774  0.25000000  0.20593833  1
  O  O233  1  0.41612774  0.25000000  0.70593833  1
  O  O234  1  0.41612774  0.75000000  0.20593833  1
  O  O235  1  0.41612774  0.75000000  0.70593833  1
  O  O236  1  0.91612774  0.25000000  0.20593833  1
  O  O237  1  0.91612774  0.25000000  0.70593833  1
  O  O238  1  0.91612774  0.75000000  0.20593833  1
  O  O239  1  0.91612774  0.75000000  0.70593833  1
  O  O240  1  0.33387226  -0.00000000  0.29406167  1
  O  O241  1  0.33387226  -0.00000000  0.79406167  1
  O  O242  1  0.33387226  0.50000000  0.29406167  1
  O  O243  1  0.33387226  0.50000000  0.79406167  1
  O  O244  1  0.83387226  -0.00000000  0.29406167  1
  O  O245  1  0.83387226  -0.00000000  0.79406167  1
  O  O246  1  0.83387226  0.50000000  0.29406167  1
  O  O247  1  0.83387226  0.50000000  0.79406167  1
  O  O248  1  0.58387226  0.25000000  0.29406167  1
  O  O249  1  0.58387226  0.25000000  0.79406167  1
  O  O250  1  0.58387226  0.75000000  0.29406167  1
  O  O251  1  0.58387226  0.75000000  0.79406167  1
  O  O252  1  1.08387226  0.25000000  0.29406167  1
  O  O253  1  1.08387226  0.25000000  0.79406167  1
  O  O254  1  1.08387226  0.75000000  0.29406167  1
  O  O255  1  1.08387226  0.75000000  0.79406167  1
  O  O256  1  0.30950483  0.16603591  0.10688579  1
  O  O257  1  0.30950483  0.16603591  0.60688579  1
  O  O258  1  0.30950483  0.66603591  0.10688579  1
  O  O259  1  0.30950483  0.66603591  0.60688579  1
  O  O260  1  0.80950483  0.16603591  0.10688579  1
  O  O261  1  0.80950483  0.16603591  0.60688579  1
  O  O262  1  0.80950483  0.66603591  0.10688579  1
  O  O263  1  0.80950483  0.66603591  0.60688579  1
  O  O264  1  0.55950483  0.41603591  0.10688579  1
  O  O265  1  0.55950483  0.41603591  0.60688579  1
  O  O266  1  0.55950483  0.91603591  0.10688579  1
  O  O267  1  0.55950483  0.91603591  0.60688579  1
  O  O268  1  1.05950483  0.41603591  0.10688579  1
  O  O269  1  1.05950483  0.41603591  0.60688579  1
  O  O270  1  1.05950483  0.91603591  0.10688579  1
  O  O271  1  1.05950483  0.91603591  0.60688579  1
  O  O272  1  0.19049517  0.16603591  0.39311421  1
  O  O273  1  0.19049517  0.16603591  0.89311421  1
  O  O274  1  0.19049517  0.66603591  0.39311421  1
  O  O275  1  0.19049517  0.66603591  0.89311421  1
  O  O276  1  0.69049517  0.16603591  0.39311421  1
  O  O277  1  0.69049517  0.16603591  0.89311421  1
  O  O278  1  0.69049517  0.66603591  0.39311421  1
  O  O279  1  0.69049517  0.66603591  0.89311421  1
  O  O280  1  0.44049517  0.41603591  0.39311421  1
  O  O281  1  0.44049517  0.41603591  0.89311421  1
  O  O282  1  0.44049517  0.91603591  0.39311421  1
  O  O283  1  0.44049517  0.91603591  0.89311421  1
  O  O284  1  0.94049517  0.41603591  0.39311421  1
  O  O285  1  0.94049517  0.41603591  0.89311421  1
  O  O286  1  0.94049517  0.91603591  0.39311421  1
  O  O287  1  0.94049517  0.91603591  0.89311421  1
  O  O288  1  0.19049517  -0.16603591  0.39311421  1
  O  O289  1  0.19049517  -0.16603591  0.89311421  1
  O  O290  1  0.19049517  0.33396409  0.39311421  1
  O  O291  1  0.19049517  0.33396409  0.89311421  1
  O  O292  1  0.69049517  -0.16603591  0.39311421  1
  O  O293  1  0.69049517  -0.16603591  0.89311421  1
  O  O294  1  0.69049517  0.33396409  0.39311421  1
  O  O295  1  0.69049517  0.33396409  0.89311421  1
  O  O296  1  0.44049517  0.08396409  0.39311421  1
  O  O297  1  0.44049517  0.08396409  0.89311421  1
  O  O298  1  0.44049517  0.58396409  0.39311421  1
  O  O299  1  0.44049517  0.58396409  0.89311421  1
  O  O300  1  0.94049517  0.08396409  0.39311421  1
  O  O301  1  0.94049517  0.08396409  0.89311421  1
  O  O302  1  0.94049517  0.58396409  0.39311421  1
  O  O303  1  0.94049517  0.58396409  0.89311421  1
  O  O304  1  0.30950483  -0.16603591  0.10688579  1
  O  O305  1  0.30950483  -0.16603591  0.60688579  1
  O  O306  1  0.30950483  0.33396409  0.10688579  1
  O  O307  1  0.30950483  0.33396409  0.60688579  1
  O  O308  1  0.80950483  -0.16603591  0.10688579  1
  O  O309  1  0.80950483  -0.16603591  0.60688579  1
  O  O310  1  0.80950483  0.33396409  0.10688579  1
  O  O311  1  0.80950483  0.33396409  0.60688579  1
  O  O312  1  0.55950483  0.08396409  0.10688579  1
  O  O313  1  0.55950483  0.08396409  0.60688579  1
  O  O314  1  0.55950483  0.58396409  0.10688579  1
  O  O315  1  0.55950483  0.58396409  0.60688579  1
  O  O316  1  1.05950483  0.08396409  0.10688579  1
  O  O317  1  1.05950483  0.08396409  0.60688579  1
  O  O318  1  1.05950483  0.58396409  0.10688579  1
  O  O319  1  1.05950483  0.58396409  0.60688579  1
