# generated using pymatgen
data_K6Si2O7
_symmetry_space_group_name_H-M   'P 1'
_cell_length_a   19.44157972
_cell_length_b   17.83093720
_cell_length_c   21.87382860
_cell_angle_alpha   90.00000000
_cell_angle_beta   124.77367015
_cell_angle_gamma   90.00000000
_symmetry_Int_Tables_number   1
_chemical_formula_structural   K6Si2O7
_chemical_formula_sum   'K144 Si48 O168'
_cell_volume   6228.61154212
_cell_formula_units_Z   24
loop_
 _symmetry_equiv_pos_site_id
 _symmetry_equiv_pos_as_xyz
  1  'x, y, z'
loop_
 _atom_site_type_symbol
 _atom_site_label
 _atom_site_symmetry_multiplicity
 _atom_site_fract_x
 _atom_site_fract_y
 _atom_site_fract_z
 _atom_site_occupancy
  K  K0  1  0.26439769  0.01363266  0.27228244  1
  K  K1  1  0.26439769  0.01363266  0.77228244  1
  K  K2  1  0.26439769  0.51363266  0.27228244  1
  K  K3  1  0.26439769  0.51363266  0.77228244  1
  K  K4  1  0.59773103  0.01363266  0.27228244  1
  K  K5  1  0.59773103  0.01363266  0.77228244  1
  K  K6  1  0.59773103  0.51363266  0.27228244  1
  K  K7  1  0.59773103  0.51363266  0.77228244  1
  K  K8  1  0.93106436  0.01363266  0.27228244  1
  K  K9  1  0.93106436  0.01363266  0.77228244  1
  K  K10  1  0.93106436  0.51363266  0.27228244  1
  K  K11  1  0.93106436  0.51363266  0.77228244  1
  K  K12  1  0.26439769  0.23636734  0.02228244  1
  K  K13  1  0.26439769  0.23636734  0.52228244  1
  K  K14  1  0.26439769  0.73636734  0.02228244  1
  K  K15  1  0.26439769  0.73636734  0.52228244  1
  K  K16  1  0.59773103  0.23636734  0.02228244  1
  K  K17  1  0.59773103  0.23636734  0.52228244  1
  K  K18  1  0.59773103  0.73636734  0.02228244  1
  K  K19  1  0.59773103  0.73636734  0.52228244  1
  K  K20  1  0.93106436  0.23636734  0.02228244  1
  K  K21  1  0.93106436  0.23636734  0.52228244  1
  K  K22  1  0.93106436  0.73636734  0.02228244  1
  K  K23  1  0.93106436  0.73636734  0.52228244  1
  K  K24  1  0.06893564  0.48636734  0.22771756  1
  K  K25  1  0.06893564  0.48636734  0.72771756  1
  K  K26  1  0.06893564  0.98636734  0.22771756  1
  K  K27  1  0.06893564  0.98636734  0.72771756  1
  K  K28  1  0.40226897  0.48636734  0.22771756  1
  K  K29  1  0.40226897  0.48636734  0.72771756  1
  K  K30  1  0.40226897  0.98636734  0.22771756  1
  K  K31  1  0.40226897  0.98636734  0.72771756  1
  K  K32  1  0.73560231  0.48636734  0.22771756  1
  K  K33  1  0.73560231  0.48636734  0.72771756  1
  K  K34  1  0.73560231  0.98636734  0.22771756  1
  K  K35  1  0.73560231  0.98636734  0.72771756  1
  K  K36  1  0.32336517  0.42547790  0.04295665  1
  K  K37  1  0.32336517  0.42547790  0.54295665  1
  K  K38  1  0.32336517  0.92547790  0.04295665  1
  K  K39  1  0.32336517  0.92547790  0.54295665  1
  K  K40  1  0.65669851  0.42547790  0.04295665  1
  K  K41  1  0.65669851  0.42547790  0.54295665  1
  K  K42  1  0.65669851  0.92547790  0.04295665  1
  K  K43  1  0.65669851  0.92547790  0.54295665  1
  K  K44  1  0.99003184  0.42547790  0.04295665  1
  K  K45  1  0.99003184  0.42547790  0.54295665  1
  K  K46  1  0.99003184  0.92547790  0.04295665  1
  K  K47  1  0.99003184  0.92547790  0.54295665  1
  K  K48  1  0.00996816  0.17547790  0.20704335  1
  K  K49  1  0.00996816  0.17547790  0.70704335  1
  K  K50  1  0.00996816  0.67547790  0.20704335  1
  K  K51  1  0.00996816  0.67547790  0.70704335  1
  K  K52  1  0.34330149  0.17547790  0.20704335  1
  K  K53  1  0.34330149  0.17547790  0.70704335  1
  K  K54  1  0.34330149  0.67547790  0.20704335  1
  K  K55  1  0.34330149  0.67547790  0.70704335  1
  K  K56  1  0.67663483  0.17547790  0.20704335  1
  K  K57  1  0.67663483  0.17547790  0.70704335  1
  K  K58  1  0.67663483  0.67547790  0.20704335  1
  K  K59  1  0.67663483  0.67547790  0.70704335  1
  K  K60  1  0.00996816  0.07452210  0.45704335  1
  K  K61  1  0.00996816  0.07452210  0.95704335  1
  K  K62  1  0.00996816  0.57452210  0.45704335  1
  K  K63  1  0.00996816  0.57452210  0.95704335  1
  K  K64  1  0.34330149  0.07452210  0.45704335  1
  K  K65  1  0.34330149  0.07452210  0.95704335  1
  K  K66  1  0.34330149  0.57452210  0.45704335  1
  K  K67  1  0.34330149  0.57452210  0.95704335  1
  K  K68  1  0.67663483  0.07452210  0.45704335  1
  K  K69  1  0.67663483  0.07452210  0.95704335  1
  K  K70  1  0.67663483  0.57452210  0.45704335  1
  K  K71  1  0.67663483  0.57452210  0.95704335  1
  K  K72  1  0.32336517  0.32452210  0.29295665  1
  K  K73  1  0.32336517  0.32452210  0.79295665  1
  K  K74  1  0.32336517  0.82452210  0.29295665  1
  K  K75  1  0.32336517  0.82452210  0.79295665  1
  K  K76  1  0.65669851  0.32452210  0.29295665  1
  K  K77  1  0.65669851  0.32452210  0.79295665  1
  K  K78  1  0.65669851  0.82452210  0.29295665  1
  K  K79  1  0.65669851  0.82452210  0.79295665  1
  K  K80  1  0.99003184  0.32452210  0.29295665  1
  K  K81  1  0.99003184  0.32452210  0.79295665  1
  K  K82  1  0.99003184  0.82452210  0.29295665  1
  K  K83  1  0.99003184  0.82452210  0.79295665  1
  K  K84  1  0.20108047  0.39119784  0.11149066  1
  K  K85  1  0.20108047  0.39119784  0.61149066  1
  K  K86  1  0.20108047  0.89119784  0.11149066  1
  K  K87  1  0.20108047  0.89119784  0.61149066  1
  K  K88  1  0.53441381  0.39119784  0.11149066  1
  K  K89  1  0.53441381  0.39119784  0.61149066  1
  K  K90  1  0.53441381  0.89119784  0.11149066  1
  K  K91  1  0.53441381  0.89119784  0.61149066  1
  K  K92  1  0.86774714  0.39119784  0.11149066  1
  K  K93  1  0.86774714  0.39119784  0.61149066  1
  K  K94  1  0.86774714  0.89119784  0.11149066  1
  K  K95  1  0.86774714  0.89119784  0.61149066  1
  K  K96  1  0.13225286  0.14119784  0.13850934  1
  K  K97  1  0.13225286  0.14119784  0.63850934  1
  K  K98  1  0.13225286  0.64119784  0.13850934  1
  K  K99  1  0.13225286  0.64119784  0.63850934  1
  K  K100  1  0.46558619  0.14119784  0.13850934  1
  K  K101  1  0.46558619  0.14119784  0.63850934  1
  K  K102  1  0.46558619  0.64119784  0.13850934  1
  K  K103  1  0.46558619  0.64119784  0.63850934  1
  K  K104  1  0.79891953  0.14119784  0.13850934  1
  K  K105  1  0.79891953  0.14119784  0.63850934  1
  K  K106  1  0.79891953  0.64119784  0.13850934  1
  K  K107  1  0.79891953  0.64119784  0.63850934  1
  K  K108  1  0.13225286  0.10880216  0.38850934  1
  K  K109  1  0.13225286  0.10880216  0.88850934  1
  K  K110  1  0.13225286  0.60880216  0.38850934  1
  K  K111  1  0.13225286  0.60880216  0.88850934  1
  K  K112  1  0.46558619  0.10880216  0.38850934  1
  K  K113  1  0.46558619  0.10880216  0.88850934  1
  K  K114  1  0.46558619  0.60880216  0.38850934  1
  K  K115  1  0.46558619  0.60880216  0.88850934  1
  K  K116  1  0.79891953  0.10880216  0.38850934  1
  K  K117  1  0.79891953  0.10880216  0.88850934  1
  K  K118  1  0.79891953  0.60880216  0.38850934  1
  K  K119  1  0.79891953  0.60880216  0.88850934  1
  K  K120  1  0.20108047  0.35880216  0.36149066  1
  K  K121  1  0.20108047  0.35880216  0.86149066  1
  K  K122  1  0.20108047  0.85880216  0.36149066  1
  K  K123  1  0.20108047  0.85880216  0.86149066  1
  K  K124  1  0.53441381  0.35880216  0.36149066  1
  K  K125  1  0.53441381  0.35880216  0.86149066  1
  K  K126  1  0.53441381  0.85880216  0.36149066  1
  K  K127  1  0.53441381  0.85880216  0.86149066  1
  K  K128  1  0.86774714  0.35880216  0.36149066  1
  K  K129  1  0.86774714  0.35880216  0.86149066  1
  K  K130  1  0.86774714  0.85880216  0.36149066  1
  K  K131  1  0.86774714  0.85880216  0.86149066  1
  K  K132  1  0.06893564  0.26363266  0.47771756  1
  K  K133  1  0.06893564  0.26363266  0.97771756  1
  K  K134  1  0.06893564  0.76363266  0.47771756  1
  K  K135  1  0.06893564  0.76363266  0.97771756  1
  K  K136  1  0.40226897  0.26363266  0.47771756  1
  K  K137  1  0.40226897  0.26363266  0.97771756  1
  K  K138  1  0.40226897  0.76363266  0.47771756  1
  K  K139  1  0.40226897  0.76363266  0.97771756  1
  K  K140  1  0.73560231  0.26363266  0.47771756  1
  K  K141  1  0.73560231  0.26363266  0.97771756  1
  K  K142  1  0.73560231  0.76363266  0.47771756  1
  K  K143  1  0.73560231  0.76363266  0.97771756  1
  Si  Si144  1  0.22466481  0.06817755  0.06272224  1
  Si  Si145  1  0.22466481  0.06817755  0.56272224  1
  Si  Si146  1  0.22466481  0.56817755  0.06272224  1
  Si  Si147  1  0.22466481  0.56817755  0.56272224  1
  Si  Si148  1  0.55799814  0.06817755  0.06272224  1
  Si  Si149  1  0.55799814  0.06817755  0.56272224  1
  Si  Si150  1  0.55799814  0.56817755  0.06272224  1
  Si  Si151  1  0.55799814  0.56817755  0.56272224  1
  Si  Si152  1  0.89133147  0.06817755  0.06272224  1
  Si  Si153  1  0.89133147  0.06817755  0.56272224  1
  Si  Si154  1  0.89133147  0.56817755  0.06272224  1
  Si  Si155  1  0.89133147  0.56817755  0.56272224  1
  Si  Si156  1  0.22466481  0.18182245  0.31272224  1
  Si  Si157  1  0.22466481  0.18182245  0.81272224  1
  Si  Si158  1  0.22466481  0.68182245  0.31272224  1
  Si  Si159  1  0.22466481  0.68182245  0.81272224  1
  Si  Si160  1  0.55799814  0.18182245  0.31272224  1
  Si  Si161  1  0.55799814  0.18182245  0.81272224  1
  Si  Si162  1  0.55799814  0.68182245  0.31272224  1
  Si  Si163  1  0.55799814  0.68182245  0.81272224  1
  Si  Si164  1  0.89133147  0.18182245  0.31272224  1
  Si  Si165  1  0.89133147  0.18182245  0.81272224  1
  Si  Si166  1  0.89133147  0.68182245  0.31272224  1
  Si  Si167  1  0.89133147  0.68182245  0.81272224  1
  Si  Si168  1  0.10866853  0.43182245  0.43727776  1
  Si  Si169  1  0.10866853  0.43182245  0.93727776  1
  Si  Si170  1  0.10866853  0.93182245  0.43727776  1
  Si  Si171  1  0.10866853  0.93182245  0.93727776  1
  Si  Si172  1  0.44200186  0.43182245  0.43727776  1
  Si  Si173  1  0.44200186  0.43182245  0.93727776  1
  Si  Si174  1  0.44200186  0.93182245  0.43727776  1
  Si  Si175  1  0.44200186  0.93182245  0.93727776  1
  Si  Si176  1  0.77533519  0.43182245  0.43727776  1
  Si  Si177  1  0.77533519  0.43182245  0.93727776  1
  Si  Si178  1  0.77533519  0.93182245  0.43727776  1
  Si  Si179  1  0.77533519  0.93182245  0.93727776  1
  Si  Si180  1  0.10866853  0.31817755  0.18727776  1
  Si  Si181  1  0.10866853  0.31817755  0.68727776  1
  Si  Si182  1  0.10866853  0.81817755  0.18727776  1
  Si  Si183  1  0.10866853  0.81817755  0.68727776  1
  Si  Si184  1  0.44200186  0.31817755  0.18727776  1
  Si  Si185  1  0.44200186  0.31817755  0.68727776  1
  Si  Si186  1  0.44200186  0.81817755  0.18727776  1
  Si  Si187  1  0.44200186  0.81817755  0.68727776  1
  Si  Si188  1  0.77533519  0.31817755  0.18727776  1
  Si  Si189  1  0.77533519  0.31817755  0.68727776  1
  Si  Si190  1  0.77533519  0.81817755  0.18727776  1
  Si  Si191  1  0.77533519  0.81817755  0.68727776  1
  O  O192  1  0.16666667  0.00000000  0.00000000  1
  O  O193  1  0.16666667  0.00000000  0.50000000  1
  O  O194  1  0.16666667  0.50000000  0.00000000  1
  O  O195  1  0.16666667  0.50000000  0.50000000  1
  O  O196  1  0.50000000  0.00000000  0.00000000  1
  O  O197  1  0.50000000  0.00000000  0.50000000  1
  O  O198  1  0.50000000  0.50000000  0.00000000  1
  O  O199  1  0.50000000  0.50000000  0.50000000  1
  O  O200  1  0.83333333  0.00000000  0.00000000  1
  O  O201  1  0.83333333  0.00000000  0.50000000  1
  O  O202  1  0.83333333  0.50000000  0.00000000  1
  O  O203  1  0.83333333  0.50000000  0.50000000  1
  O  O204  1  0.08639659  0.29119474  0.10632985  1
  O  O205  1  0.08639659  0.29119474  0.60632985  1
  O  O206  1  0.08639659  0.79119474  0.10632985  1
  O  O207  1  0.08639659  0.79119474  0.60632985  1
  O  O208  1  0.41972993  0.29119474  0.10632985  1
  O  O209  1  0.41972993  0.29119474  0.60632985  1
  O  O210  1  0.41972993  0.79119474  0.10632985  1
  O  O211  1  0.41972993  0.79119474  0.60632985  1
  O  O212  1  0.75306326  0.29119474  0.10632985  1
  O  O213  1  0.75306326  0.29119474  0.60632985  1
  O  O214  1  0.75306326  0.79119474  0.10632985  1
  O  O215  1  0.75306326  0.79119474  0.60632985  1
  O  O216  1  0.24693674  0.04119474  0.14367015  1
  O  O217  1  0.24693674  0.04119474  0.64367015  1
  O  O218  1  0.24693674  0.54119474  0.14367015  1
  O  O219  1  0.24693674  0.54119474  0.64367015  1
  O  O220  1  0.58027007  0.04119474  0.14367015  1
  O  O221  1  0.58027007  0.04119474  0.64367015  1
  O  O222  1  0.58027007  0.54119474  0.14367015  1
  O  O223  1  0.58027007  0.54119474  0.64367015  1
  O  O224  1  0.91360341  0.04119474  0.14367015  1
  O  O225  1  0.91360341  0.04119474  0.64367015  1
  O  O226  1  0.91360341  0.54119474  0.14367015  1
  O  O227  1  0.91360341  0.54119474  0.64367015  1
  O  O228  1  0.24693674  0.20880526  0.39367015  1
  O  O229  1  0.24693674  0.20880526  0.89367015  1
  O  O230  1  0.24693674  0.70880526  0.39367015  1
  O  O231  1  0.24693674  0.70880526  0.89367015  1
  O  O232  1  0.58027007  0.20880526  0.39367015  1
  O  O233  1  0.58027007  0.20880526  0.89367015  1
  O  O234  1  0.58027007  0.70880526  0.39367015  1
  O  O235  1  0.58027007  0.70880526  0.89367015  1
  O  O236  1  0.91360341  0.20880526  0.39367015  1
  O  O237  1  0.91360341  0.20880526  0.89367015  1
  O  O238  1  0.91360341  0.70880526  0.39367015  1
  O  O239  1  0.91360341  0.70880526  0.89367015  1
  O  O240  1  0.16666667  0.25000000  0.25000000  1
  O  O241  1  0.16666667  0.25000000  0.75000000  1
  O  O242  1  0.16666667  0.75000000  0.25000000  1
  O  O243  1  0.16666667  0.75000000  0.75000000  1
  O  O244  1  0.50000000  0.25000000  0.25000000  1
  O  O245  1  0.50000000  0.25000000  0.75000000  1
  O  O246  1  0.50000000  0.75000000  0.25000000  1
  O  O247  1  0.50000000  0.75000000  0.75000000  1
  O  O248  1  0.83333333  0.25000000  0.25000000  1
  O  O249  1  0.83333333  0.25000000  0.75000000  1
  O  O250  1  0.83333333  0.75000000  0.25000000  1
  O  O251  1  0.83333333  0.75000000  0.75000000  1
  O  O252  1  0.02449865  0.42034143  0.43686051  1
  O  O253  1  0.02449865  0.42034143  0.93686051  1
  O  O254  1  0.02449865  0.92034143  0.43686051  1
  O  O255  1  0.02449865  0.92034143  0.93686051  1
  O  O256  1  0.35783198  0.42034143  0.43686051  1
  O  O257  1  0.35783198  0.42034143  0.93686051  1
  O  O258  1  0.35783198  0.92034143  0.43686051  1
  O  O259  1  0.35783198  0.92034143  0.93686051  1
  O  O260  1  0.69116531  0.42034143  0.43686051  1
  O  O261  1  0.69116531  0.42034143  0.93686051  1
  O  O262  1  0.69116531  0.92034143  0.43686051  1
  O  O263  1  0.69116531  0.92034143  0.93686051  1
  O  O264  1  0.30883469  0.17034143  0.31313949  1
  O  O265  1  0.30883469  0.17034143  0.81313949  1
  O  O266  1  0.30883469  0.67034143  0.31313949  1
  O  O267  1  0.30883469  0.67034143  0.81313949  1
  O  O268  1  0.64216802  0.17034143  0.31313949  1
  O  O269  1  0.64216802  0.17034143  0.81313949  1
  O  O270  1  0.64216802  0.67034143  0.31313949  1
  O  O271  1  0.64216802  0.67034143  0.81313949  1
  O  O272  1  0.97550135  0.17034143  0.31313949  1
  O  O273  1  0.97550135  0.17034143  0.81313949  1
  O  O274  1  0.97550135  0.67034143  0.31313949  1
  O  O275  1  0.97550135  0.67034143  0.81313949  1
  O  O276  1  0.30883469  0.07965857  0.06313949  1
  O  O277  1  0.30883469  0.07965857  0.56313949  1
  O  O278  1  0.30883469  0.57965857  0.06313949  1
  O  O279  1  0.30883469  0.57965857  0.56313949  1
  O  O280  1  0.64216802  0.07965857  0.06313949  1
  O  O281  1  0.64216802  0.07965857  0.56313949  1
  O  O282  1  0.64216802  0.57965857  0.06313949  1
  O  O283  1  0.64216802  0.57965857  0.56313949  1
  O  O284  1  0.97550135  0.07965857  0.06313949  1
  O  O285  1  0.97550135  0.07965857  0.56313949  1
  O  O286  1  0.97550135  0.57965857  0.06313949  1
  O  O287  1  0.97550135  0.57965857  0.56313949  1
  O  O288  1  0.02449865  0.32965857  0.18686051  1
  O  O289  1  0.02449865  0.32965857  0.68686051  1
  O  O290  1  0.02449865  0.82965857  0.18686051  1
  O  O291  1  0.02449865  0.82965857  0.68686051  1
  O  O292  1  0.35783198  0.32965857  0.18686051  1
  O  O293  1  0.35783198  0.32965857  0.68686051  1
  O  O294  1  0.35783198  0.82965857  0.18686051  1
  O  O295  1  0.35783198  0.82965857  0.68686051  1
  O  O296  1  0.69116531  0.32965857  0.18686051  1
  O  O297  1  0.69116531  0.32965857  0.68686051  1
  O  O298  1  0.69116531  0.82965857  0.18686051  1
  O  O299  1  0.69116531  0.82965857  0.68686051  1
  O  O300  1  0.16883196  0.35722054  0.46778133  1
  O  O301  1  0.16883196  0.35722054  0.96778133  1
  O  O302  1  0.16883196  0.85722054  0.46778133  1
  O  O303  1  0.16883196  0.85722054  0.96778133  1
  O  O304  1  0.50216529  0.35722054  0.46778133  1
  O  O305  1  0.50216529  0.35722054  0.96778133  1
  O  O306  1  0.50216529  0.85722054  0.46778133  1
  O  O307  1  0.50216529  0.85722054  0.96778133  1
  O  O308  1  0.83549862  0.35722054  0.46778133  1
  O  O309  1  0.83549862  0.35722054  0.96778133  1
  O  O310  1  0.83549862  0.85722054  0.46778133  1
  O  O311  1  0.83549862  0.85722054  0.96778133  1
  O  O312  1  0.16450138  0.10722054  0.28221867  1
  O  O313  1  0.16450138  0.10722054  0.78221867  1
  O  O314  1  0.16450138  0.60722054  0.28221867  1
  O  O315  1  0.16450138  0.60722054  0.78221867  1
  O  O316  1  0.49783471  0.10722054  0.28221867  1
  O  O317  1  0.49783471  0.10722054  0.78221867  1
  O  O318  1  0.49783471  0.60722054  0.28221867  1
  O  O319  1  0.49783471  0.60722054  0.78221867  1
  O  O320  1  0.83116804  0.10722054  0.28221867  1
  O  O321  1  0.83116804  0.10722054  0.78221867  1
  O  O322  1  0.83116804  0.60722054  0.28221867  1
  O  O323  1  0.83116804  0.60722054  0.78221867  1
  O  O324  1  0.16450138  0.14277946  0.03221867  1
  O  O325  1  0.16450138  0.14277946  0.53221867  1
  O  O326  1  0.16450138  0.64277946  0.03221867  1
  O  O327  1  0.16450138  0.64277946  0.53221867  1
  O  O328  1  0.49783471  0.14277946  0.03221867  1
  O  O329  1  0.49783471  0.14277946  0.53221867  1
  O  O330  1  0.49783471  0.64277946  0.03221867  1
  O  O331  1  0.49783471  0.64277946  0.53221867  1
  O  O332  1  0.83116804  0.14277946  0.03221867  1
  O  O333  1  0.83116804  0.14277946  0.53221867  1
  O  O334  1  0.83116804  0.64277946  0.03221867  1
  O  O335  1  0.83116804  0.64277946  0.53221867  1
  O  O336  1  0.16883196  0.39277946  0.21778133  1
  O  O337  1  0.16883196  0.39277946  0.71778133  1
  O  O338  1  0.16883196  0.89277946  0.21778133  1
  O  O339  1  0.16883196  0.89277946  0.71778133  1
  O  O340  1  0.50216529  0.39277946  0.21778133  1
  O  O341  1  0.50216529  0.39277946  0.71778133  1
  O  O342  1  0.50216529  0.89277946  0.21778133  1
  O  O343  1  0.50216529  0.89277946  0.71778133  1
  O  O344  1  0.83549862  0.39277946  0.21778133  1
  O  O345  1  0.83549862  0.39277946  0.71778133  1
  O  O346  1  0.83549862  0.89277946  0.21778133  1
  O  O347  1  0.83549862  0.89277946  0.71778133  1
  O  O348  1  0.08639659  0.45880526  0.35632985  1
  O  O349  1  0.08639659  0.45880526  0.85632985  1
  O  O350  1  0.08639659  0.95880526  0.35632985  1
  O  O351  1  0.08639659  0.95880526  0.85632985  1
  O  O352  1  0.41972993  0.45880526  0.35632985  1
  O  O353  1  0.41972993  0.45880526  0.85632985  1
  O  O354  1  0.41972993  0.95880526  0.35632985  1
  O  O355  1  0.41972993  0.95880526  0.85632985  1
  O  O356  1  0.75306326  0.45880526  0.35632985  1
  O  O357  1  0.75306326  0.45880526  0.85632985  1
  O  O358  1  0.75306326  0.95880526  0.35632985  1
  O  O359  1  0.75306326  0.95880526  0.85632985  1
