# generated using pymatgen
data_V2Zn2O7
_symmetry_space_group_name_H-M   'P 1'
_cell_length_a   15.00755024
_cell_length_b   16.27892785
_cell_length_c   20.06058944
_cell_angle_alpha   90.00000000
_cell_angle_beta   110.89524881
_cell_angle_gamma   90.00000000
_symmetry_Int_Tables_number   1
_chemical_formula_structural   V2Zn2O7
_chemical_formula_sum   'V64 Zn64 O224'
_cell_volume   4578.62407609
_cell_formula_units_Z   32
loop_
 _symmetry_equiv_pos_site_id
 _symmetry_equiv_pos_as_xyz
  1  'x, y, z'
loop_
 _atom_site_type_symbol
 _atom_site_label
 _atom_site_symmetry_multiplicity
 _atom_site_fract_x
 _atom_site_fract_y
 _atom_site_fract_z
 _atom_site_occupancy
  V  V0  1  0.12992054  -0.12857202  0.35371802  1
  V  V1  1  0.12992054  -0.12857202  0.85371802  1
  V  V2  1  0.12992054  0.37142798  0.35371802  1
  V  V3  1  0.12992054  0.37142798  0.85371802  1
  V  V4  1  0.62992054  -0.12857202  0.35371802  1
  V  V5  1  0.62992054  -0.12857202  0.85371802  1
  V  V6  1  0.62992054  0.37142798  0.35371802  1
  V  V7  1  0.62992054  0.37142798  0.85371802  1
  V  V8  1  0.37992054  0.12142798  0.35371802  1
  V  V9  1  0.37992054  0.12142798  0.85371802  1
  V  V10  1  0.37992054  0.62142798  0.35371802  1
  V  V11  1  0.37992054  0.62142798  0.85371802  1
  V  V12  1  0.87992054  0.12142798  0.35371802  1
  V  V13  1  0.87992054  0.12142798  0.85371802  1
  V  V14  1  0.87992054  0.62142798  0.35371802  1
  V  V15  1  0.87992054  0.62142798  0.85371802  1
  V  V16  1  0.37007946  -0.12857202  0.39628198  1
  V  V17  1  0.37007946  -0.12857202  0.89628198  1
  V  V18  1  0.37007946  0.37142798  0.39628198  1
  V  V19  1  0.37007946  0.37142798  0.89628198  1
  V  V20  1  0.87007946  -0.12857202  0.39628198  1
  V  V21  1  0.87007946  -0.12857202  0.89628198  1
  V  V22  1  0.87007946  0.37142798  0.39628198  1
  V  V23  1  0.87007946  0.37142798  0.89628198  1
  V  V24  1  0.62007946  0.12142798  0.39628198  1
  V  V25  1  0.62007946  0.12142798  0.89628198  1
  V  V26  1  0.62007946  0.62142798  0.39628198  1
  V  V27  1  0.62007946  0.62142798  0.89628198  1
  V  V28  1  1.12007946  0.12142798  0.39628198  1
  V  V29  1  1.12007946  0.12142798  0.89628198  1
  V  V30  1  1.12007946  0.62142798  0.39628198  1
  V  V31  1  1.12007946  0.62142798  0.89628198  1
  V  V32  1  0.37007946  0.12857202  0.14628198  1
  V  V33  1  0.37007946  0.12857202  0.64628198  1
  V  V34  1  0.37007946  0.62857202  0.14628198  1
  V  V35  1  0.37007946  0.62857202  0.64628198  1
  V  V36  1  0.87007946  0.12857202  0.14628198  1
  V  V37  1  0.87007946  0.12857202  0.64628198  1
  V  V38  1  0.87007946  0.62857202  0.14628198  1
  V  V39  1  0.87007946  0.62857202  0.64628198  1
  V  V40  1  0.62007946  0.37857202  0.14628198  1
  V  V41  1  0.62007946  0.37857202  0.64628198  1
  V  V42  1  0.62007946  0.87857202  0.14628198  1
  V  V43  1  0.62007946  0.87857202  0.64628198  1
  V  V44  1  1.12007946  0.37857202  0.14628198  1
  V  V45  1  1.12007946  0.37857202  0.64628198  1
  V  V46  1  1.12007946  0.87857202  0.14628198  1
  V  V47  1  1.12007946  0.87857202  0.64628198  1
  V  V48  1  0.12992054  0.12857202  0.10371802  1
  V  V49  1  0.12992054  0.12857202  0.60371802  1
  V  V50  1  0.12992054  0.62857202  0.10371802  1
  V  V51  1  0.12992054  0.62857202  0.60371802  1
  V  V52  1  0.62992054  0.12857202  0.10371802  1
  V  V53  1  0.62992054  0.12857202  0.60371802  1
  V  V54  1  0.62992054  0.62857202  0.10371802  1
  V  V55  1  0.62992054  0.62857202  0.60371802  1
  V  V56  1  0.37992054  0.37857202  0.10371802  1
  V  V57  1  0.37992054  0.37857202  0.60371802  1
  V  V58  1  0.37992054  0.87857202  0.10371802  1
  V  V59  1  0.37992054  0.87857202  0.60371802  1
  V  V60  1  0.87992054  0.37857202  0.10371802  1
  V  V61  1  0.87992054  0.37857202  0.60371802  1
  V  V62  1  0.87992054  0.87857202  0.10371802  1
  V  V63  1  0.87992054  0.87857202  0.60371802  1
  Zn  Zn64  1  0.16496673  -0.03875918  0.01115503  1
  Zn  Zn65  1  0.16496673  -0.03875918  0.51115503  1
  Zn  Zn66  1  0.16496673  0.46124082  0.01115503  1
  Zn  Zn67  1  0.16496673  0.46124082  0.51115503  1
  Zn  Zn68  1  0.66496673  -0.03875918  0.01115503  1
  Zn  Zn69  1  0.66496673  -0.03875918  0.51115503  1
  Zn  Zn70  1  0.66496673  0.46124082  0.01115503  1
  Zn  Zn71  1  0.66496673  0.46124082  0.51115503  1
  Zn  Zn72  1  0.41496673  0.21124082  0.01115503  1
  Zn  Zn73  1  0.41496673  0.21124082  0.51115503  1
  Zn  Zn74  1  0.41496673  0.71124082  0.01115503  1
  Zn  Zn75  1  0.41496673  0.71124082  0.51115503  1
  Zn  Zn76  1  0.91496673  0.21124082  0.01115503  1
  Zn  Zn77  1  0.91496673  0.21124082  0.51115503  1
  Zn  Zn78  1  0.91496673  0.71124082  0.01115503  1
  Zn  Zn79  1  0.91496673  0.71124082  0.51115503  1
  Zn  Zn80  1  0.33503327  -0.03875918  0.23884497  1
  Zn  Zn81  1  0.33503327  -0.03875918  0.73884497  1
  Zn  Zn82  1  0.33503327  0.46124082  0.23884497  1
  Zn  Zn83  1  0.33503327  0.46124082  0.73884497  1
  Zn  Zn84  1  0.83503327  -0.03875918  0.23884497  1
  Zn  Zn85  1  0.83503327  -0.03875918  0.73884497  1
  Zn  Zn86  1  0.83503327  0.46124082  0.23884497  1
  Zn  Zn87  1  0.83503327  0.46124082  0.73884497  1
  Zn  Zn88  1  0.58503327  0.21124082  0.23884497  1
  Zn  Zn89  1  0.58503327  0.21124082  0.73884497  1
  Zn  Zn90  1  0.58503327  0.71124082  0.23884497  1
  Zn  Zn91  1  0.58503327  0.71124082  0.73884497  1
  Zn  Zn92  1  1.08503327  0.21124082  0.23884497  1
  Zn  Zn93  1  1.08503327  0.21124082  0.73884497  1
  Zn  Zn94  1  1.08503327  0.71124082  0.23884497  1
  Zn  Zn95  1  1.08503327  0.71124082  0.73884497  1
  Zn  Zn96  1  0.33503327  0.03875918  0.48884497  1
  Zn  Zn97  1  0.33503327  0.03875918  0.98884497  1
  Zn  Zn98  1  0.33503327  0.53875918  0.48884497  1
  Zn  Zn99  1  0.33503327  0.53875918  0.98884497  1
  Zn  Zn100  1  0.83503327  0.03875918  0.48884497  1
  Zn  Zn101  1  0.83503327  0.03875918  0.98884497  1
  Zn  Zn102  1  0.83503327  0.53875918  0.48884497  1
  Zn  Zn103  1  0.83503327  0.53875918  0.98884497  1
  Zn  Zn104  1  0.58503327  0.28875918  0.48884497  1
  Zn  Zn105  1  0.58503327  0.28875918  0.98884497  1
  Zn  Zn106  1  0.58503327  0.78875918  0.48884497  1
  Zn  Zn107  1  0.58503327  0.78875918  0.98884497  1
  Zn  Zn108  1  1.08503327  0.28875918  0.48884497  1
  Zn  Zn109  1  1.08503327  0.28875918  0.98884497  1
  Zn  Zn110  1  1.08503327  0.78875918  0.48884497  1
  Zn  Zn111  1  1.08503327  0.78875918  0.98884497  1
  Zn  Zn112  1  0.16496673  0.03875918  0.26115503  1
  Zn  Zn113  1  0.16496673  0.03875918  0.76115503  1
  Zn  Zn114  1  0.16496673  0.53875918  0.26115503  1
  Zn  Zn115  1  0.16496673  0.53875918  0.76115503  1
  Zn  Zn116  1  0.66496673  0.03875918  0.26115503  1
  Zn  Zn117  1  0.66496673  0.03875918  0.76115503  1
  Zn  Zn118  1  0.66496673  0.53875918  0.26115503  1
  Zn  Zn119  1  0.66496673  0.53875918  0.76115503  1
  Zn  Zn120  1  0.41496673  0.28875918  0.26115503  1
  Zn  Zn121  1  0.41496673  0.28875918  0.76115503  1
  Zn  Zn122  1  0.41496673  0.78875918  0.26115503  1
  Zn  Zn123  1  0.41496673  0.78875918  0.76115503  1
  Zn  Zn124  1  0.91496673  0.28875918  0.26115503  1
  Zn  Zn125  1  0.91496673  0.28875918  0.76115503  1
  Zn  Zn126  1  0.91496673  0.78875918  0.26115503  1
  Zn  Zn127  1  0.91496673  0.78875918  0.76115503  1
  O  O128  1  0.11469117  -0.04021661  0.30849487  1
  O  O129  1  0.11469117  -0.04021661  0.80849487  1
  O  O130  1  0.11469117  0.45978339  0.30849487  1
  O  O131  1  0.11469117  0.45978339  0.80849487  1
  O  O132  1  0.61469117  -0.04021661  0.30849487  1
  O  O133  1  0.61469117  -0.04021661  0.80849487  1
  O  O134  1  0.61469117  0.45978339  0.30849487  1
  O  O135  1  0.61469117  0.45978339  0.80849487  1
  O  O136  1  0.36469117  0.20978339  0.30849487  1
  O  O137  1  0.36469117  0.20978339  0.80849487  1
  O  O138  1  0.36469117  0.70978339  0.30849487  1
  O  O139  1  0.36469117  0.70978339  0.80849487  1
  O  O140  1  0.86469117  0.20978339  0.30849487  1
  O  O141  1  0.86469117  0.20978339  0.80849487  1
  O  O142  1  0.86469117  0.70978339  0.30849487  1
  O  O143  1  0.86469117  0.70978339  0.80849487  1
  O  O144  1  0.38530883  -0.04021661  0.44150513  1
  O  O145  1  0.38530883  -0.04021661  0.94150513  1
  O  O146  1  0.38530883  0.45978339  0.44150513  1
  O  O147  1  0.38530883  0.45978339  0.94150513  1
  O  O148  1  0.88530883  -0.04021661  0.44150513  1
  O  O149  1  0.88530883  -0.04021661  0.94150513  1
  O  O150  1  0.88530883  0.45978339  0.44150513  1
  O  O151  1  0.88530883  0.45978339  0.94150513  1
  O  O152  1  0.63530883  0.20978339  0.44150513  1
  O  O153  1  0.63530883  0.20978339  0.94150513  1
  O  O154  1  0.63530883  0.70978339  0.44150513  1
  O  O155  1  0.63530883  0.70978339  0.94150513  1
  O  O156  1  1.13530883  0.20978339  0.44150513  1
  O  O157  1  1.13530883  0.20978339  0.94150513  1
  O  O158  1  1.13530883  0.70978339  0.44150513  1
  O  O159  1  1.13530883  0.70978339  0.94150513  1
  O  O160  1  0.38530883  0.04021661  0.19150513  1
  O  O161  1  0.38530883  0.04021661  0.69150513  1
  O  O162  1  0.38530883  0.54021661  0.19150513  1
  O  O163  1  0.38530883  0.54021661  0.69150513  1
  O  O164  1  0.88530883  0.04021661  0.19150513  1
  O  O165  1  0.88530883  0.04021661  0.69150513  1
  O  O166  1  0.88530883  0.54021661  0.19150513  1
  O  O167  1  0.88530883  0.54021661  0.69150513  1
  O  O168  1  0.63530883  0.29021661  0.19150513  1
  O  O169  1  0.63530883  0.29021661  0.69150513  1
  O  O170  1  0.63530883  0.79021661  0.19150513  1
  O  O171  1  0.63530883  0.79021661  0.69150513  1
  O  O172  1  1.13530883  0.29021661  0.19150513  1
  O  O173  1  1.13530883  0.29021661  0.69150513  1
  O  O174  1  1.13530883  0.79021661  0.19150513  1
  O  O175  1  1.13530883  0.79021661  0.69150513  1
  O  O176  1  0.11469117  0.04021661  0.05849487  1
  O  O177  1  0.11469117  0.04021661  0.55849487  1
  O  O178  1  0.11469117  0.54021661  0.05849487  1
  O  O179  1  0.11469117  0.54021661  0.55849487  1
  O  O180  1  0.61469117  0.04021661  0.05849487  1
  O  O181  1  0.61469117  0.04021661  0.55849487  1
  O  O182  1  0.61469117  0.54021661  0.05849487  1
  O  O183  1  0.61469117  0.54021661  0.55849487  1
  O  O184  1  0.36469117  0.29021661  0.05849487  1
  O  O185  1  0.36469117  0.29021661  0.55849487  1
  O  O186  1  0.36469117  0.79021661  0.05849487  1
  O  O187  1  0.36469117  0.79021661  0.55849487  1
  O  O188  1  0.86469117  0.29021661  0.05849487  1
  O  O189  1  0.86469117  0.29021661  0.55849487  1
  O  O190  1  0.86469117  0.79021661  0.05849487  1
  O  O191  1  0.86469117  0.79021661  0.55849487  1
  O  O192  1  0.30442473  0.04796564  0.30138862  1
  O  O193  1  0.30442473  0.04796564  0.80138862  1
  O  O194  1  0.30442473  0.54796564  0.30138862  1
  O  O195  1  0.30442473  0.54796564  0.80138862  1
  O  O196  1  0.80442473  0.04796564  0.30138862  1
  O  O197  1  0.80442473  0.04796564  0.80138862  1
  O  O198  1  0.80442473  0.54796564  0.30138862  1
  O  O199  1  0.80442473  0.54796564  0.80138862  1
  O  O200  1  0.55442473  0.29796564  0.30138862  1
  O  O201  1  0.55442473  0.29796564  0.80138862  1
  O  O202  1  0.55442473  0.79796564  0.30138862  1
  O  O203  1  0.55442473  0.79796564  0.80138862  1
  O  O204  1  1.05442473  0.29796564  0.30138862  1
  O  O205  1  1.05442473  0.29796564  0.80138862  1
  O  O206  1  1.05442473  0.79796564  0.30138862  1
  O  O207  1  1.05442473  0.79796564  0.80138862  1
  O  O208  1  0.19557527  0.04796564  0.44861138  1
  O  O209  1  0.19557527  0.04796564  0.94861138  1
  O  O210  1  0.19557527  0.54796564  0.44861138  1
  O  O211  1  0.19557527  0.54796564  0.94861138  1
  O  O212  1  0.69557527  0.04796564  0.44861138  1
  O  O213  1  0.69557527  0.04796564  0.94861138  1
  O  O214  1  0.69557527  0.54796564  0.44861138  1
  O  O215  1  0.69557527  0.54796564  0.94861138  1
  O  O216  1  0.44557527  0.29796564  0.44861138  1
  O  O217  1  0.44557527  0.29796564  0.94861138  1
  O  O218  1  0.44557527  0.79796564  0.44861138  1
  O  O219  1  0.44557527  0.79796564  0.94861138  1
  O  O220  1  0.94557527  0.29796564  0.44861138  1
  O  O221  1  0.94557527  0.29796564  0.94861138  1
  O  O222  1  0.94557527  0.79796564  0.44861138  1
  O  O223  1  0.94557527  0.79796564  0.94861138  1
  O  O224  1  0.19557527  -0.04796564  0.19861138  1
  O  O225  1  0.19557527  -0.04796564  0.69861138  1
  O  O226  1  0.19557527  0.45203436  0.19861138  1
  O  O227  1  0.19557527  0.45203436  0.69861138  1
  O  O228  1  0.69557527  -0.04796564  0.19861138  1
  O  O229  1  0.69557527  -0.04796564  0.69861138  1
  O  O230  1  0.69557527  0.45203436  0.19861138  1
  O  O231  1  0.69557527  0.45203436  0.69861138  1
  O  O232  1  0.44557527  0.20203436  0.19861138  1
  O  O233  1  0.44557527  0.20203436  0.69861138  1
  O  O234  1  0.44557527  0.70203436  0.19861138  1
  O  O235  1  0.44557527  0.70203436  0.69861138  1
  O  O236  1  0.94557527  0.20203436  0.19861138  1
  O  O237  1  0.94557527  0.20203436  0.69861138  1
  O  O238  1  0.94557527  0.70203436  0.19861138  1
  O  O239  1  0.94557527  0.70203436  0.69861138  1
  O  O240  1  0.30442473  -0.04796564  0.05138862  1
  O  O241  1  0.30442473  -0.04796564  0.55138862  1
  O  O242  1  0.30442473  0.45203436  0.05138862  1
  O  O243  1  0.30442473  0.45203436  0.55138862  1
  O  O244  1  0.80442473  -0.04796564  0.05138862  1
  O  O245  1  0.80442473  -0.04796564  0.55138862  1
  O  O246  1  0.80442473  0.45203436  0.05138862  1
  O  O247  1  0.80442473  0.45203436  0.55138862  1
  O  O248  1  0.55442473  0.20203436  0.05138862  1
  O  O249  1  0.55442473  0.20203436  0.55138862  1
  O  O250  1  0.55442473  0.70203436  0.05138862  1
  O  O251  1  0.55442473  0.70203436  0.55138862  1
  O  O252  1  1.05442473  0.20203436  0.05138862  1
  O  O253  1  1.05442473  0.20203436  0.55138862  1
  O  O254  1  1.05442473  0.70203436  0.05138862  1
  O  O255  1  1.05442473  0.70203436  0.55138862  1
  O  O256  1  0.25000000  0.16058993  0.12500000  1
  O  O257  1  0.25000000  0.16058993  0.62500000  1
  O  O258  1  0.25000000  0.66058993  0.12500000  1
  O  O259  1  0.25000000  0.66058993  0.62500000  1
  O  O260  1  0.75000000  0.16058993  0.12500000  1
  O  O261  1  0.75000000  0.16058993  0.62500000  1
  O  O262  1  0.75000000  0.66058993  0.12500000  1
  O  O263  1  0.75000000  0.66058993  0.62500000  1
  O  O264  1  0.50000000  0.41058993  0.12500000  1
  O  O265  1  0.50000000  0.41058993  0.62500000  1
  O  O266  1  0.50000000  0.91058993  0.12500000  1
  O  O267  1  0.50000000  0.91058993  0.62500000  1
  O  O268  1  1.00000000  0.41058993  0.12500000  1
  O  O269  1  1.00000000  0.41058993  0.62500000  1
  O  O270  1  1.00000000  0.91058993  0.12500000  1
  O  O271  1  1.00000000  0.91058993  0.62500000  1
  O  O272  1  0.25000000  -0.16058993  0.37500000  1
  O  O273  1  0.25000000  -0.16058993  0.87500000  1
  O  O274  1  0.25000000  0.33941007  0.37500000  1
  O  O275  1  0.25000000  0.33941007  0.87500000  1
  O  O276  1  0.75000000  -0.16058993  0.37500000  1
  O  O277  1  0.75000000  -0.16058993  0.87500000  1
  O  O278  1  0.75000000  0.33941007  0.37500000  1
  O  O279  1  0.75000000  0.33941007  0.87500000  1
  O  O280  1  0.50000000  0.08941007  0.37500000  1
  O  O281  1  0.50000000  0.08941007  0.87500000  1
  O  O282  1  0.50000000  0.58941007  0.37500000  1
  O  O283  1  0.50000000  0.58941007  0.87500000  1
  O  O284  1  1.00000000  0.08941007  0.37500000  1
  O  O285  1  1.00000000  0.08941007  0.87500000  1
  O  O286  1  1.00000000  0.58941007  0.37500000  1
  O  O287  1  1.00000000  0.58941007  0.87500000  1
  O  O288  1  0.35834725  -0.13574705  0.18209674  1
  O  O289  1  0.35834725  -0.13574705  0.68209674  1
  O  O290  1  0.35834725  0.36425295  0.18209674  1
  O  O291  1  0.35834725  0.36425295  0.68209674  1
  O  O292  1  0.85834725  -0.13574705  0.18209674  1
  O  O293  1  0.85834725  -0.13574705  0.68209674  1
  O  O294  1  0.85834725  0.36425295  0.18209674  1
  O  O295  1  0.85834725  0.36425295  0.68209674  1
  O  O296  1  0.60834725  0.11425295  0.18209674  1
  O  O297  1  0.60834725  0.11425295  0.68209674  1
  O  O298  1  0.60834725  0.61425295  0.18209674  1
  O  O299  1  0.60834725  0.61425295  0.68209674  1
  O  O300  1  1.10834725  0.11425295  0.18209674  1
  O  O301  1  1.10834725  0.11425295  0.68209674  1
  O  O302  1  1.10834725  0.61425295  0.18209674  1
  O  O303  1  1.10834725  0.61425295  0.68209674  1
  O  O304  1  0.14165275  -0.13574705  0.06790326  1
  O  O305  1  0.14165275  -0.13574705  0.56790326  1
  O  O306  1  0.14165275  0.36425295  0.06790326  1
  O  O307  1  0.14165275  0.36425295  0.56790326  1
  O  O308  1  0.64165275  -0.13574705  0.06790326  1
  O  O309  1  0.64165275  -0.13574705  0.56790326  1
  O  O310  1  0.64165275  0.36425295  0.06790326  1
  O  O311  1  0.64165275  0.36425295  0.56790326  1
  O  O312  1  0.39165275  0.11425295  0.06790326  1
  O  O313  1  0.39165275  0.11425295  0.56790326  1
  O  O314  1  0.39165275  0.61425295  0.06790326  1
  O  O315  1  0.39165275  0.61425295  0.56790326  1
  O  O316  1  0.89165275  0.11425295  0.06790326  1
  O  O317  1  0.89165275  0.11425295  0.56790326  1
  O  O318  1  0.89165275  0.61425295  0.06790326  1
  O  O319  1  0.89165275  0.61425295  0.56790326  1
  O  O320  1  0.14165275  0.13574705  0.31790326  1
  O  O321  1  0.14165275  0.13574705  0.81790326  1
  O  O322  1  0.14165275  0.63574705  0.31790326  1
  O  O323  1  0.14165275  0.63574705  0.81790326  1
  O  O324  1  0.64165275  0.13574705  0.31790326  1
  O  O325  1  0.64165275  0.13574705  0.81790326  1
  O  O326  1  0.64165275  0.63574705  0.31790326  1
  O  O327  1  0.64165275  0.63574705  0.81790326  1
  O  O328  1  0.39165275  0.38574705  0.31790326  1
  O  O329  1  0.39165275  0.38574705  0.81790326  1
  O  O330  1  0.39165275  0.88574705  0.31790326  1
  O  O331  1  0.39165275  0.88574705  0.81790326  1
  O  O332  1  0.89165275  0.38574705  0.31790326  1
  O  O333  1  0.89165275  0.38574705  0.81790326  1
  O  O334  1  0.89165275  0.88574705  0.31790326  1
  O  O335  1  0.89165275  0.88574705  0.81790326  1
  O  O336  1  0.35834725  0.13574705  0.43209674  1
  O  O337  1  0.35834725  0.13574705  0.93209674  1
  O  O338  1  0.35834725  0.63574705  0.43209674  1
  O  O339  1  0.35834725  0.63574705  0.93209674  1
  O  O340  1  0.85834725  0.13574705  0.43209674  1
  O  O341  1  0.85834725  0.13574705  0.93209674  1
  O  O342  1  0.85834725  0.63574705  0.43209674  1
  O  O343  1  0.85834725  0.63574705  0.93209674  1
  O  O344  1  0.60834725  0.38574705  0.43209674  1
  O  O345  1  0.60834725  0.38574705  0.93209674  1
  O  O346  1  0.60834725  0.88574705  0.43209674  1
  O  O347  1  0.60834725  0.88574705  0.93209674  1
  O  O348  1  1.10834725  0.38574705  0.43209674  1
  O  O349  1  1.10834725  0.38574705  0.93209674  1
  O  O350  1  1.10834725  0.88574705  0.43209674  1
  O  O351  1  1.10834725  0.88574705  0.93209674  1
