# generated using pymatgen
data_La2HgO4
_symmetry_space_group_name_H-M   'P 1'
_cell_length_a   13.98296414
_cell_length_b   11.65291379
_cell_length_c   10.32953953
_cell_angle_alpha   90.00000000
_cell_angle_beta   120.65546129
_cell_angle_gamma   90.00000000
_symmetry_Int_Tables_number   1
_chemical_formula_structural   La2HgO4
_chemical_formula_sum   'La24 Hg12 O48'
_cell_volume   1447.90095742
_cell_formula_units_Z   12
loop_
 _symmetry_equiv_pos_site_id
 _symmetry_equiv_pos_as_xyz
  1  'x, y, z'
loop_
 _atom_site_type_symbol
 _atom_site_label
 _atom_site_symmetry_multiplicity
 _atom_site_fract_x
 _atom_site_fract_y
 _atom_site_fract_z
 _atom_site_occupancy
  La  La0  1  0.61918805  0.00000000  0.45634936  1
  La  La1  1  0.61918805  0.33333333  0.45634936  1
  La  La2  1  0.61918805  0.66666667  0.45634936  1
  La  La3  1  1.11918805  0.16666667  0.45634936  1
  La  La4  1  1.11918805  0.50000000  0.45634936  1
  La  La5  1  1.11918805  0.83333333  0.45634936  1
  La  La6  1  0.16093748  -0.00000000  0.79864217  1
  La  La7  1  0.16093748  0.33333333  0.79864217  1
  La  La8  1  0.16093748  0.66666667  0.79864217  1
  La  La9  1  0.66093748  0.16666667  0.79864217  1
  La  La10  1  0.66093748  0.50000000  0.79864217  1
  La  La11  1  0.66093748  0.83333333  0.79864217  1
  La  La12  1  0.83906252  -0.00000000  0.20135783  1
  La  La13  1  0.83906252  0.33333333  0.20135783  1
  La  La14  1  0.83906252  0.66666667  0.20135783  1
  La  La15  1  1.33906252  0.16666667  0.20135783  1
  La  La16  1  1.33906252  0.50000000  0.20135783  1
  La  La17  1  1.33906252  0.83333333  0.20135783  1
  La  La18  1  0.38081195  0.00000000  0.54365064  1
  La  La19  1  0.38081195  0.33333333  0.54365064  1
  La  La20  1  0.38081195  0.66666667  0.54365064  1
  La  La21  1  0.88081195  0.16666667  0.54365064  1
  La  La22  1  0.88081195  0.50000000  0.54365064  1
  La  La23  1  0.88081195  0.83333333  0.54365064  1
  Hg  Hg24  1  0.88337830  0.00000000  0.83590774  1
  Hg  Hg25  1  0.88337830  0.33333333  0.83590774  1
  Hg  Hg26  1  0.88337830  0.66666667  0.83590774  1
  Hg  Hg27  1  1.38337830  0.16666667  0.83590774  1
  Hg  Hg28  1  1.38337830  0.50000000  0.83590774  1
  Hg  Hg29  1  1.38337830  0.83333333  0.83590774  1
  Hg  Hg30  1  0.11662170  0.00000000  0.16409226  1
  Hg  Hg31  1  0.11662170  0.33333333  0.16409226  1
  Hg  Hg32  1  0.11662170  0.66666667  0.16409226  1
  Hg  Hg33  1  0.61662170  0.16666667  0.16409226  1
  Hg  Hg34  1  0.61662170  0.50000000  0.16409226  1
  Hg  Hg35  1  0.61662170  0.83333333  0.16409226  1
  O  O36  1  0.22738140  -0.00000000  0.60996575  1
  O  O37  1  0.22738140  0.33333333  0.60996575  1
  O  O38  1  0.22738140  0.66666667  0.60996575  1
  O  O39  1  0.72738140  0.16666667  0.60996575  1
  O  O40  1  0.72738140  0.50000000  0.60996575  1
  O  O41  1  0.72738140  0.83333333  0.60996575  1
  O  O42  1  0.79656722  0.00000000  0.94057364  1
  O  O43  1  0.79656722  0.33333333  0.94057364  1
  O  O44  1  0.79656722  0.66666667  0.94057364  1
  O  O45  1  1.29656722  0.16666667  0.94057364  1
  O  O46  1  1.29656722  0.50000000  0.94057364  1
  O  O47  1  1.29656722  0.83333333  0.94057364  1
  O  O48  1  0.03606674  -0.00000000  0.27713576  1
  O  O49  1  0.03606674  0.33333333  0.27713576  1
  O  O50  1  0.03606674  0.66666667  0.27713576  1
  O  O51  1  0.53606674  0.16666667  0.27713576  1
  O  O52  1  0.53606674  0.50000000  0.27713576  1
  O  O53  1  0.53606674  0.83333333  0.27713576  1
  O  O54  1  0.58142283  -0.00000000  0.65418204  1
  O  O55  1  0.58142283  0.33333333  0.65418204  1
  O  O56  1  0.58142283  0.66666667  0.65418204  1
  O  O57  1  1.08142283  0.16666667  0.65418204  1
  O  O58  1  1.08142283  0.50000000  0.65418204  1
  O  O59  1  1.08142283  0.83333333  0.65418204  1
  O  O60  1  0.41857717  0.00000000  0.34581796  1
  O  O61  1  0.41857717  0.33333333  0.34581796  1
  O  O62  1  0.41857717  0.66666667  0.34581796  1
  O  O63  1  0.91857717  0.16666667  0.34581796  1
  O  O64  1  0.91857717  0.50000000  0.34581796  1
  O  O65  1  0.91857717  0.83333333  0.34581796  1
  O  O66  1  0.96393326  0.00000000  0.72286424  1
  O  O67  1  0.96393326  0.33333333  0.72286424  1
  O  O68  1  0.96393326  0.66666667  0.72286424  1
  O  O69  1  1.46393326  0.16666667  0.72286424  1
  O  O70  1  1.46393326  0.50000000  0.72286424  1
  O  O71  1  1.46393326  0.83333333  0.72286424  1
  O  O72  1  0.20343278  -0.00000000  0.05942636  1
  O  O73  1  0.20343278  0.33333333  0.05942636  1
  O  O74  1  0.20343278  0.66666667  0.05942636  1
  O  O75  1  0.70343278  0.16666667  0.05942636  1
  O  O76  1  0.70343278  0.50000000  0.05942636  1
  O  O77  1  0.70343278  0.83333333  0.05942636  1
  O  O78  1  0.77261860  -0.00000000  0.39003425  1
  O  O79  1  0.77261860  0.33333333  0.39003425  1
  O  O80  1  0.77261860  0.66666667  0.39003425  1
  O  O81  1  1.27261860  0.16666667  0.39003425  1
  O  O82  1  1.27261860  0.50000000  0.39003425  1
  O  O83  1  1.27261860  0.83333333  0.39003425  1
