# generated using pymatgen
data_KLiZn3O4
_symmetry_space_group_name_H-M   'P 1'
_cell_length_a   11.37113816
_cell_length_b   13.13839743
_cell_length_c   16.05797527
_cell_angle_alpha   90.00000000
_cell_angle_beta   134.60459345
_cell_angle_gamma   90.00000000
_symmetry_Int_Tables_number   1
_chemical_formula_structural   KLiZn3O4
_chemical_formula_sum   'K16 Li16 Zn48 O64'
_cell_volume   1708.04244477
_cell_formula_units_Z   16
loop_
 _symmetry_equiv_pos_site_id
 _symmetry_equiv_pos_as_xyz
  1  'x, y, z'
loop_
 _atom_site_type_symbol
 _atom_site_label
 _atom_site_symmetry_multiplicity
 _atom_site_fract_x
 _atom_site_fract_y
 _atom_site_fract_z
 _atom_site_occupancy
  K  K0  1  0.00571017  -0.00000000  0.00083923  1
  K  K1  1  0.00571017  -0.00000000  0.50083923  1
  K  K2  1  0.00571017  0.25000000  0.00083923  1
  K  K3  1  0.00571017  0.25000000  0.50083923  1
  K  K4  1  0.00571017  0.50000000  0.00083923  1
  K  K5  1  0.00571017  0.50000000  0.50083923  1
  K  K6  1  0.00571017  0.75000000  0.00083923  1
  K  K7  1  0.00571017  0.75000000  0.50083923  1
  K  K8  1  0.50571017  0.12500000  0.00083923  1
  K  K9  1  0.50571017  0.12500000  0.50083923  1
  K  K10  1  0.50571017  0.37500000  0.00083923  1
  K  K11  1  0.50571017  0.37500000  0.50083923  1
  K  K12  1  0.50571017  0.62500000  0.00083923  1
  K  K13  1  0.50571017  0.62500000  0.50083923  1
  K  K14  1  0.50571017  0.87500000  0.00083923  1
  K  K15  1  0.50571017  0.87500000  0.50083923  1
  Li  Li16  1  0.82210892  0.00000000  0.09603334  1
  Li  Li17  1  0.82210892  0.00000000  0.59603334  1
  Li  Li18  1  0.82210892  0.25000000  0.09603334  1
  Li  Li19  1  0.82210892  0.25000000  0.59603334  1
  Li  Li20  1  0.82210892  0.50000000  0.09603334  1
  Li  Li21  1  0.82210892  0.50000000  0.59603334  1
  Li  Li22  1  0.82210892  0.75000000  0.09603334  1
  Li  Li23  1  0.82210892  0.75000000  0.59603334  1
  Li  Li24  1  1.32210892  0.12500000  0.09603334  1
  Li  Li25  1  1.32210892  0.12500000  0.59603334  1
  Li  Li26  1  1.32210892  0.37500000  0.09603334  1
  Li  Li27  1  1.32210892  0.37500000  0.59603334  1
  Li  Li28  1  1.32210892  0.62500000  0.09603334  1
  Li  Li29  1  1.32210892  0.62500000  0.59603334  1
  Li  Li30  1  1.32210892  0.87500000  0.09603334  1
  Li  Li31  1  1.32210892  0.87500000  0.59603334  1
  Zn  Zn32  1  0.19758502  0.00000000  0.41998199  1
  Zn  Zn33  1  0.19758502  0.00000000  0.91998199  1
  Zn  Zn34  1  0.19758502  0.25000000  0.41998199  1
  Zn  Zn35  1  0.19758502  0.25000000  0.91998199  1
  Zn  Zn36  1  0.19758502  0.50000000  0.41998199  1
  Zn  Zn37  1  0.19758502  0.50000000  0.91998199  1
  Zn  Zn38  1  0.19758502  0.75000000  0.41998199  1
  Zn  Zn39  1  0.19758502  0.75000000  0.91998199  1
  Zn  Zn40  1  0.69758502  0.12500000  0.41998199  1
  Zn  Zn41  1  0.69758502  0.12500000  0.91998199  1
  Zn  Zn42  1  0.69758502  0.37500000  0.41998199  1
  Zn  Zn43  1  0.69758502  0.37500000  0.91998199  1
  Zn  Zn44  1  0.69758502  0.62500000  0.41998199  1
  Zn  Zn45  1  0.69758502  0.62500000  0.91998199  1
  Zn  Zn46  1  0.69758502  0.87500000  0.41998199  1
  Zn  Zn47  1  0.69758502  0.87500000  0.91998199  1
  Zn  Zn48  1  0.36670541  0.00000000  0.26973049  1
  Zn  Zn49  1  0.36670541  0.00000000  0.76973049  1
  Zn  Zn50  1  0.36670541  0.25000000  0.26973049  1
  Zn  Zn51  1  0.36670541  0.25000000  0.76973049  1
  Zn  Zn52  1  0.36670541  0.50000000  0.26973049  1
  Zn  Zn53  1  0.36670541  0.50000000  0.76973049  1
  Zn  Zn54  1  0.36670541  0.75000000  0.26973049  1
  Zn  Zn55  1  0.36670541  0.75000000  0.76973049  1
  Zn  Zn56  1  0.86670541  0.12500000  0.26973049  1
  Zn  Zn57  1  0.86670541  0.12500000  0.76973049  1
  Zn  Zn58  1  0.86670541  0.37500000  0.26973049  1
  Zn  Zn59  1  0.86670541  0.37500000  0.76973049  1
  Zn  Zn60  1  0.86670541  0.62500000  0.26973049  1
  Zn  Zn61  1  0.86670541  0.62500000  0.76973049  1
  Zn  Zn62  1  0.86670541  0.87500000  0.26973049  1
  Zn  Zn63  1  0.86670541  0.87500000  0.76973049  1
  Zn  Zn64  1  0.62356329  -0.00000000  0.22081455  1
  Zn  Zn65  1  0.62356329  -0.00000000  0.72081455  1
  Zn  Zn66  1  0.62356329  0.25000000  0.22081455  1
  Zn  Zn67  1  0.62356329  0.25000000  0.72081455  1
  Zn  Zn68  1  0.62356329  0.50000000  0.22081455  1
  Zn  Zn69  1  0.62356329  0.50000000  0.72081455  1
  Zn  Zn70  1  0.62356329  0.75000000  0.22081455  1
  Zn  Zn71  1  0.62356329  0.75000000  0.72081455  1
  Zn  Zn72  1  1.12356329  0.12500000  0.22081455  1
  Zn  Zn73  1  1.12356329  0.12500000  0.72081455  1
  Zn  Zn74  1  1.12356329  0.37500000  0.22081455  1
  Zn  Zn75  1  1.12356329  0.37500000  0.72081455  1
  Zn  Zn76  1  1.12356329  0.62500000  0.22081455  1
  Zn  Zn77  1  1.12356329  0.62500000  0.72081455  1
  Zn  Zn78  1  1.12356329  0.87500000  0.22081455  1
  Zn  Zn79  1  1.12356329  0.87500000  0.72081455  1
  O  O80  1  0.76496135  0.00000000  0.18556499  1
  O  O81  1  0.76496135  0.00000000  0.68556499  1
  O  O82  1  0.76496135  0.25000000  0.18556499  1
  O  O83  1  0.76496135  0.25000000  0.68556499  1
  O  O84  1  0.76496135  0.50000000  0.18556499  1
  O  O85  1  0.76496135  0.50000000  0.68556499  1
  O  O86  1  0.76496135  0.75000000  0.18556499  1
  O  O87  1  0.76496135  0.75000000  0.68556499  1
  O  O88  1  1.26496135  0.12500000  0.18556499  1
  O  O89  1  1.26496135  0.12500000  0.68556499  1
  O  O90  1  1.26496135  0.37500000  0.18556499  1
  O  O91  1  1.26496135  0.37500000  0.68556499  1
  O  O92  1  1.26496135  0.62500000  0.18556499  1
  O  O93  1  1.26496135  0.62500000  0.68556499  1
  O  O94  1  1.26496135  0.87500000  0.18556499  1
  O  O95  1  1.26496135  0.87500000  0.68556499  1
  O  O96  1  0.22623571  -0.00000000  0.31458379  1
  O  O97  1  0.22623571  -0.00000000  0.81458379  1
  O  O98  1  0.22623571  0.25000000  0.31458379  1
  O  O99  1  0.22623571  0.25000000  0.81458379  1
  O  O100  1  0.22623571  0.50000000  0.31458379  1
  O  O101  1  0.22623571  0.50000000  0.81458379  1
  O  O102  1  0.22623571  0.75000000  0.31458379  1
  O  O103  1  0.22623571  0.75000000  0.81458379  1
  O  O104  1  0.72623571  0.12500000  0.31458379  1
  O  O105  1  0.72623571  0.12500000  0.81458379  1
  O  O106  1  0.72623571  0.37500000  0.31458379  1
  O  O107  1  0.72623571  0.37500000  0.81458379  1
  O  O108  1  0.72623571  0.62500000  0.31458379  1
  O  O109  1  0.72623571  0.62500000  0.81458379  1
  O  O110  1  0.72623571  0.87500000  0.31458379  1
  O  O111  1  0.72623571  0.87500000  0.81458379  1
  O  O112  1  0.59451227  0.00000000  0.40718119  1
  O  O113  1  0.59451227  0.00000000  0.90718119  1
  O  O114  1  0.59451227  0.25000000  0.40718119  1
  O  O115  1  0.59451227  0.25000000  0.90718119  1
  O  O116  1  0.59451227  0.50000000  0.40718119  1
  O  O117  1  0.59451227  0.50000000  0.90718119  1
  O  O118  1  0.59451227  0.75000000  0.40718119  1
  O  O119  1  0.59451227  0.75000000  0.90718119  1
  O  O120  1  1.09451227  0.12500000  0.40718119  1
  O  O121  1  1.09451227  0.12500000  0.90718119  1
  O  O122  1  1.09451227  0.37500000  0.40718119  1
  O  O123  1  1.09451227  0.37500000  0.90718119  1
  O  O124  1  1.09451227  0.62500000  0.40718119  1
  O  O125  1  1.09451227  0.62500000  0.90718119  1
  O  O126  1  1.09451227  0.87500000  0.40718119  1
  O  O127  1  1.09451227  0.87500000  0.90718119  1
  O  O128  1  0.39861785  -0.00000000  0.08527092  1
  O  O129  1  0.39861785  -0.00000000  0.58527092  1
  O  O130  1  0.39861785  0.25000000  0.08527092  1
  O  O131  1  0.39861785  0.25000000  0.58527092  1
  O  O132  1  0.39861785  0.50000000  0.08527092  1
  O  O133  1  0.39861785  0.50000000  0.58527092  1
  O  O134  1  0.39861785  0.75000000  0.08527092  1
  O  O135  1  0.39861785  0.75000000  0.58527092  1
  O  O136  1  0.89861785  0.12500000  0.08527092  1
  O  O137  1  0.89861785  0.12500000  0.58527092  1
  O  O138  1  0.89861785  0.37500000  0.08527092  1
  O  O139  1  0.89861785  0.37500000  0.58527092  1
  O  O140  1  0.89861785  0.62500000  0.08527092  1
  O  O141  1  0.89861785  0.62500000  0.58527092  1
  O  O142  1  0.89861785  0.87500000  0.08527092  1
  O  O143  1  0.89861785  0.87500000  0.58527092  1
