# generated using pymatgen
data_SrIn2O4
_symmetry_space_group_name_H-M   'P 1'
_cell_length_a   9.84558661
_cell_length_b   9.88030932
_cell_length_c   11.60887491
_cell_angle_alpha   90.00000000
_cell_angle_beta   90.00000000
_cell_angle_gamma   90.00000000
_symmetry_Int_Tables_number   1
_chemical_formula_structural   SrIn2O4
_chemical_formula_sum   'Sr12 In24 O48'
_cell_volume   1129.28164583
_cell_formula_units_Z   12
loop_
 _symmetry_equiv_pos_site_id
 _symmetry_equiv_pos_as_xyz
  1  'x, y, z'
loop_
 _atom_site_type_symbol
 _atom_site_label
 _atom_site_symmetry_multiplicity
 _atom_site_fract_x
 _atom_site_fract_y
 _atom_site_fract_z
 _atom_site_occupancy
  Sr  Sr0  1  0.75590772  0.25000000  0.34608190  1
  Sr  Sr1  1  0.75590772  0.58333333  0.34608190  1
  Sr  Sr2  1  0.75590772  0.91666667  0.34608190  1
  Sr  Sr3  1  0.24409228  0.08333333  0.65391810  1
  Sr  Sr4  1  0.24409228  0.41666667  0.65391810  1
  Sr  Sr5  1  0.24409228  0.75000000  0.65391810  1
  Sr  Sr6  1  0.25590772  0.25000000  0.15391810  1
  Sr  Sr7  1  0.25590772  0.58333333  0.15391810  1
  Sr  Sr8  1  0.25590772  0.91666667  0.15391810  1
  Sr  Sr9  1  0.74409228  0.08333333  0.84608190  1
  Sr  Sr10  1  0.74409228  0.41666667  0.84608190  1
  Sr  Sr11  1  0.74409228  0.75000000  0.84608190  1
  In  In12  1  0.41857010  0.25000000  0.89479026  1
  In  In13  1  0.41857010  0.58333333  0.89479026  1
  In  In14  1  0.41857010  0.91666667  0.89479026  1
  In  In15  1  0.58142990  0.08333333  0.10520974  1
  In  In16  1  0.58142990  0.41666667  0.10520974  1
  In  In17  1  0.58142990  0.75000000  0.10520974  1
  In  In18  1  0.91857010  0.25000000  0.60520974  1
  In  In19  1  0.91857010  0.58333333  0.60520974  1
  In  In20  1  0.91857010  0.91666667  0.60520974  1
  In  In21  1  0.08142990  0.08333333  0.39479026  1
  In  In22  1  0.08142990  0.41666667  0.39479026  1
  In  In23  1  0.08142990  0.75000000  0.39479026  1
  In  In24  1  0.43017815  0.25000000  0.38907234  1
  In  In25  1  0.43017815  0.58333333  0.38907234  1
  In  In26  1  0.43017815  0.91666667  0.38907234  1
  In  In27  1  0.56982185  0.08333333  0.61092766  1
  In  In28  1  0.56982185  0.41666667  0.61092766  1
  In  In29  1  0.56982185  0.75000000  0.61092766  1
  In  In30  1  0.93017815  0.25000000  0.11092766  1
  In  In31  1  0.93017815  0.58333333  0.11092766  1
  In  In32  1  0.93017815  0.91666667  0.11092766  1
  In  In33  1  0.06982185  0.08333333  0.88907234  1
  In  In34  1  0.06982185  0.41666667  0.88907234  1
  In  In35  1  0.06982185  0.75000000  0.88907234  1
  O  O36  1  0.20663347  0.25000000  0.83044268  1
  O  O37  1  0.20663347  0.58333333  0.83044268  1
  O  O38  1  0.20663347  0.91666667  0.83044268  1
  O  O39  1  0.79336653  0.08333333  0.16955732  1
  O  O40  1  0.79336653  0.41666667  0.16955732  1
  O  O41  1  0.79336653  0.75000000  0.16955732  1
  O  O42  1  0.70663347  0.25000000  0.66955732  1
  O  O43  1  0.70663347  0.58333333  0.66955732  1
  O  O44  1  0.70663347  0.91666667  0.66955732  1
  O  O45  1  0.29336653  0.08333333  0.33044268  1
  O  O46  1  0.29336653  0.41666667  0.33044268  1
  O  O47  1  0.29336653  0.75000000  0.33044268  1
  O  O48  1  0.12346751  0.25000000  0.52212531  1
  O  O49  1  0.12346751  0.58333333  0.52212531  1
  O  O50  1  0.12346751  0.91666667  0.52212531  1
  O  O51  1  0.87653249  0.08333333  0.47787469  1
  O  O52  1  0.87653249  0.41666667  0.47787469  1
  O  O53  1  0.87653249  0.75000000  0.47787469  1
  O  O54  1  0.62346751  0.25000000  0.97787469  1
  O  O55  1  0.62346751  0.58333333  0.97787469  1
  O  O56  1  0.62346751  0.91666667  0.97787469  1
  O  O57  1  0.37653249  0.08333333  0.02212531  1
  O  O58  1  0.37653249  0.41666667  0.02212531  1
  O  O59  1  0.37653249  0.75000000  0.02212531  1
  O  O60  1  0.52260162  0.25000000  0.21710752  1
  O  O61  1  0.52260162  0.58333333  0.21710752  1
  O  O62  1  0.52260162  0.91666667  0.21710752  1
  O  O63  1  0.47739838  0.08333333  0.78289248  1
  O  O64  1  0.47739838  0.41666667  0.78289248  1
  O  O65  1  0.47739838  0.75000000  0.78289248  1
  O  O66  1  0.02260162  0.25000000  0.28289248  1
  O  O67  1  0.02260162  0.58333333  0.28289248  1
  O  O68  1  0.02260162  0.91666667  0.28289248  1
  O  O69  1  0.97739838  0.08333333  0.71710752  1
  O  O70  1  0.97739838  0.41666667  0.71710752  1
  O  O71  1  0.97739838  0.75000000  0.71710752  1
  O  O72  1  0.41804672  0.25000000  0.57588416  1
  O  O73  1  0.41804672  0.58333333  0.57588416  1
  O  O74  1  0.41804672  0.91666667  0.57588416  1
  O  O75  1  0.58195328  0.08333333  0.42411584  1
  O  O76  1  0.58195328  0.41666667  0.42411584  1
  O  O77  1  0.58195328  0.75000000  0.42411584  1
  O  O78  1  0.91804672  0.25000000  0.92411584  1
  O  O79  1  0.91804672  0.58333333  0.92411584  1
  O  O80  1  0.91804672  0.91666667  0.92411584  1
  O  O81  1  0.08195328  0.08333333  0.07588416  1
  O  O82  1  0.08195328  0.41666667  0.07588416  1
  O  O83  1  0.08195328  0.75000000  0.07588416  1
