# generated using pymatgen
data_La2ReO5
_symmetry_space_group_name_H-M   'P 1'
_cell_length_a   17.76554042
_cell_length_b   17.76554042
_cell_length_c   17.94499878
_cell_angle_alpha   90.00000000
_cell_angle_beta   90.00000000
_cell_angle_gamma   90.00000000
_symmetry_Int_Tables_number   1
_chemical_formula_structural   La2ReO5
_chemical_formula_sum   'La96 Re48 O240'
_cell_volume   5663.70049988
_cell_formula_units_Z   48
loop_
 _symmetry_equiv_pos_site_id
 _symmetry_equiv_pos_as_xyz
  1  'x, y, z'
loop_
 _atom_site_type_symbol
 _atom_site_label
 _atom_site_symmetry_multiplicity
 _atom_site_fract_x
 _atom_site_fract_y
 _atom_site_fract_z
 _atom_site_occupancy
  La  La0  1  0.15890729  0.55248767  0.16666667  1
  La  La1  1  0.15890729  0.55248767  0.50000000  1
  La  La2  1  0.15890729  0.55248767  0.83333333  1
  La  La3  1  0.65890729  0.55248767  0.16666667  1
  La  La4  1  0.65890729  0.55248767  0.50000000  1
  La  La5  1  0.65890729  0.55248767  0.83333333  1
  La  La6  1  0.15890729  0.05248767  0.16666667  1
  La  La7  1  0.15890729  0.05248767  0.50000000  1
  La  La8  1  0.15890729  0.05248767  0.83333333  1
  La  La9  1  0.65890729  0.05248767  0.16666667  1
  La  La10  1  0.65890729  0.05248767  0.50000000  1
  La  La11  1  0.65890729  0.05248767  0.83333333  1
  La  La12  1  0.40890729  0.30248767  0.33333333  1
  La  La13  1  0.40890729  0.30248767  0.66666667  1
  La  La14  1  0.40890729  0.30248767  1.00000000  1
  La  La15  1  0.90890729  0.30248767  0.33333333  1
  La  La16  1  0.90890729  0.30248767  0.66666667  1
  La  La17  1  0.90890729  0.30248767  1.00000000  1
  La  La18  1  0.40890729  -0.19751233  0.33333333  1
  La  La19  1  0.40890729  -0.19751233  0.66666667  1
  La  La20  1  0.40890729  -0.19751233  1.00000000  1
  La  La21  1  0.90890729  -0.19751233  0.33333333  1
  La  La22  1  0.90890729  -0.19751233  0.66666667  1
  La  La23  1  0.90890729  -0.19751233  1.00000000  1
  La  La24  1  0.19751233  0.40890729  -0.00000000  1
  La  La25  1  0.19751233  0.40890729  0.33333333  1
  La  La26  1  0.19751233  0.40890729  0.66666667  1
  La  La27  1  0.69751233  0.40890729  -0.00000000  1
  La  La28  1  0.69751233  0.40890729  0.33333333  1
  La  La29  1  0.69751233  0.40890729  0.66666667  1
  La  La30  1  0.19751233  -0.09109271  -0.00000000  1
  La  La31  1  0.19751233  -0.09109271  0.33333333  1
  La  La32  1  0.19751233  -0.09109271  0.66666667  1
  La  La33  1  0.69751233  -0.09109271  -0.00000000  1
  La  La34  1  0.69751233  -0.09109271  0.33333333  1
  La  La35  1  0.69751233  -0.09109271  0.66666667  1
  La  La36  1  0.44751233  0.15890729  0.16666667  1
  La  La37  1  0.44751233  0.15890729  0.50000000  1
  La  La38  1  0.44751233  0.15890729  0.83333333  1
  La  La39  1  0.94751233  0.15890729  0.16666667  1
  La  La40  1  0.94751233  0.15890729  0.50000000  1
  La  La41  1  0.94751233  0.15890729  0.83333333  1
  La  La42  1  0.44751233  -0.34109271  0.16666667  1
  La  La43  1  0.44751233  -0.34109271  0.50000000  1
  La  La44  1  0.44751233  -0.34109271  0.83333333  1
  La  La45  1  0.94751233  -0.34109271  0.16666667  1
  La  La46  1  0.94751233  -0.34109271  0.50000000  1
  La  La47  1  0.94751233  -0.34109271  0.83333333  1
  La  La48  1  0.05248767  0.34109271  0.16666667  1
  La  La49  1  0.05248767  0.34109271  0.50000000  1
  La  La50  1  0.05248767  0.34109271  0.83333333  1
  La  La51  1  0.55248767  0.34109271  0.16666667  1
  La  La52  1  0.55248767  0.34109271  0.50000000  1
  La  La53  1  0.55248767  0.34109271  0.83333333  1
  La  La54  1  0.05248767  -0.15890729  0.16666667  1
  La  La55  1  0.05248767  -0.15890729  0.50000000  1
  La  La56  1  0.05248767  -0.15890729  0.83333333  1
  La  La57  1  0.55248767  -0.15890729  0.16666667  1
  La  La58  1  0.55248767  -0.15890729  0.50000000  1
  La  La59  1  0.55248767  -0.15890729  0.83333333  1
  La  La60  1  0.30248767  0.09109271  0.33333333  1
  La  La61  1  0.30248767  0.09109271  0.66666667  1
  La  La62  1  0.30248767  0.09109271  1.00000000  1
  La  La63  1  0.80248767  0.09109271  0.33333333  1
  La  La64  1  0.80248767  0.09109271  0.66666667  1
  La  La65  1  0.80248767  0.09109271  1.00000000  1
  La  La66  1  0.30248767  -0.40890729  0.33333333  1
  La  La67  1  0.30248767  -0.40890729  0.66666667  1
  La  La68  1  0.30248767  -0.40890729  1.00000000  1
  La  La69  1  0.80248767  -0.40890729  0.33333333  1
  La  La70  1  0.80248767  -0.40890729  0.66666667  1
  La  La71  1  0.80248767  -0.40890729  1.00000000  1
  La  La72  1  0.09109271  0.19751233  -0.00000000  1
  La  La73  1  0.09109271  0.19751233  0.33333333  1
  La  La74  1  0.09109271  0.19751233  0.66666667  1
  La  La75  1  0.59109271  0.19751233  -0.00000000  1
  La  La76  1  0.59109271  0.19751233  0.33333333  1
  La  La77  1  0.59109271  0.19751233  0.66666667  1
  La  La78  1  0.09109271  -0.30248767  -0.00000000  1
  La  La79  1  0.09109271  -0.30248767  0.33333333  1
  La  La80  1  0.09109271  -0.30248767  0.66666667  1
  La  La81  1  0.59109271  -0.30248767  -0.00000000  1
  La  La82  1  0.59109271  -0.30248767  0.33333333  1
  La  La83  1  0.59109271  -0.30248767  0.66666667  1
  La  La84  1  0.34109271  -0.05248767  0.16666667  1
  La  La85  1  0.34109271  -0.05248767  0.50000000  1
  La  La86  1  0.34109271  -0.05248767  0.83333333  1
  La  La87  1  0.84109271  -0.05248767  0.16666667  1
  La  La88  1  0.84109271  -0.05248767  0.50000000  1
  La  La89  1  0.84109271  -0.05248767  0.83333333  1
  La  La90  1  0.34109271  -0.55248767  0.16666667  1
  La  La91  1  0.34109271  -0.55248767  0.50000000  1
  La  La92  1  0.34109271  -0.55248767  0.83333333  1
  La  La93  1  0.84109271  -0.55248767  0.16666667  1
  La  La94  1  0.84109271  -0.55248767  0.50000000  1
  La  La95  1  0.84109271  -0.55248767  0.83333333  1
  Re  Re96  1  -0.00000000  0.50000000  0.06297351  1
  Re  Re97  1  -0.00000000  0.50000000  0.39630685  1
  Re  Re98  1  -0.00000000  0.50000000  0.72964018  1
  Re  Re99  1  0.50000000  0.50000000  0.06297351  1
  Re  Re100  1  0.50000000  0.50000000  0.39630685  1
  Re  Re101  1  0.50000000  0.50000000  0.72964018  1
  Re  Re102  1  -0.00000000  -0.00000000  0.06297351  1
  Re  Re103  1  -0.00000000  -0.00000000  0.39630685  1
  Re  Re104  1  -0.00000000  -0.00000000  0.72964018  1
  Re  Re105  1  0.50000000  -0.00000000  0.06297351  1
  Re  Re106  1  0.50000000  -0.00000000  0.39630685  1
  Re  Re107  1  0.50000000  -0.00000000  0.72964018  1
  Re  Re108  1  0.25000000  0.25000000  0.22964018  1
  Re  Re109  1  0.25000000  0.25000000  0.56297351  1
  Re  Re110  1  0.25000000  0.25000000  0.89630685  1
  Re  Re111  1  0.75000000  0.25000000  0.22964018  1
  Re  Re112  1  0.75000000  0.25000000  0.56297351  1
  Re  Re113  1  0.75000000  0.25000000  0.89630685  1
  Re  Re114  1  0.25000000  -0.25000000  0.22964018  1
  Re  Re115  1  0.25000000  -0.25000000  0.56297351  1
  Re  Re116  1  0.25000000  -0.25000000  0.89630685  1
  Re  Re117  1  0.75000000  -0.25000000  0.22964018  1
  Re  Re118  1  0.75000000  -0.25000000  0.56297351  1
  Re  Re119  1  0.75000000  -0.25000000  0.89630685  1
  Re  Re120  1  -0.00000000  0.50000000  0.27035982  1
  Re  Re121  1  -0.00000000  0.50000000  0.60369315  1
  Re  Re122  1  -0.00000000  0.50000000  0.93702649  1
  Re  Re123  1  0.50000000  0.50000000  0.27035982  1
  Re  Re124  1  0.50000000  0.50000000  0.60369315  1
  Re  Re125  1  0.50000000  0.50000000  0.93702649  1
  Re  Re126  1  -0.00000000  -0.00000000  0.27035982  1
  Re  Re127  1  -0.00000000  -0.00000000  0.60369315  1
  Re  Re128  1  -0.00000000  -0.00000000  0.93702649  1
  Re  Re129  1  0.50000000  -0.00000000  0.27035982  1
  Re  Re130  1  0.50000000  -0.00000000  0.60369315  1
  Re  Re131  1  0.50000000  -0.00000000  0.93702649  1
  Re  Re132  1  0.25000000  0.25000000  0.43702649  1
  Re  Re133  1  0.25000000  0.25000000  0.77035982  1
  Re  Re134  1  0.25000000  0.25000000  1.10369315  1
  Re  Re135  1  0.75000000  0.25000000  0.43702649  1
  Re  Re136  1  0.75000000  0.25000000  0.77035982  1
  Re  Re137  1  0.75000000  0.25000000  1.10369315  1
  Re  Re138  1  0.25000000  -0.25000000  0.43702649  1
  Re  Re139  1  0.25000000  -0.25000000  0.77035982  1
  Re  Re140  1  0.25000000  -0.25000000  1.10369315  1
  Re  Re141  1  0.75000000  -0.25000000  0.43702649  1
  Re  Re142  1  0.75000000  -0.25000000  0.77035982  1
  Re  Re143  1  0.75000000  -0.25000000  1.10369315  1
  O  O144  1  0.29772929  0.34447976  -0.08017284  1
  O  O145  1  0.29772929  0.34447976  0.25316049  1
  O  O146  1  0.29772929  0.34447976  0.58649383  1
  O  O147  1  0.79772929  0.34447976  -0.08017284  1
  O  O148  1  0.79772929  0.34447976  0.25316049  1
  O  O149  1  0.79772929  0.34447976  0.58649383  1
  O  O150  1  0.29772929  -0.15552024  -0.08017284  1
  O  O151  1  0.29772929  -0.15552024  0.25316049  1
  O  O152  1  0.29772929  -0.15552024  0.58649383  1
  O  O153  1  0.79772929  -0.15552024  -0.08017284  1
  O  O154  1  0.79772929  -0.15552024  0.25316049  1
  O  O155  1  0.79772929  -0.15552024  0.58649383  1
  O  O156  1  0.54772929  0.09447976  0.08649383  1
  O  O157  1  0.54772929  0.09447976  0.41982716  1
  O  O158  1  0.54772929  0.09447976  0.75316049  1
  O  O159  1  1.04772929  0.09447976  0.08649383  1
  O  O160  1  1.04772929  0.09447976  0.41982716  1
  O  O161  1  1.04772929  0.09447976  0.75316049  1
  O  O162  1  0.54772929  -0.40552024  0.08649383  1
  O  O163  1  0.54772929  -0.40552024  0.41982716  1
  O  O164  1  0.54772929  -0.40552024  0.75316049  1
  O  O165  1  1.04772929  -0.40552024  0.08649383  1
  O  O166  1  1.04772929  -0.40552024  0.41982716  1
  O  O167  1  1.04772929  -0.40552024  0.75316049  1
  O  O168  1  0.15552024  0.29772929  -0.08017284  1
  O  O169  1  0.15552024  0.29772929  0.25316049  1
  O  O170  1  0.15552024  0.29772929  0.58649383  1
  O  O171  1  0.65552024  0.29772929  -0.08017284  1
  O  O172  1  0.65552024  0.29772929  0.25316049  1
  O  O173  1  0.65552024  0.29772929  0.58649383  1
  O  O174  1  0.15552024  -0.20227071  -0.08017284  1
  O  O175  1  0.15552024  -0.20227071  0.25316049  1
  O  O176  1  0.15552024  -0.20227071  0.58649383  1
  O  O177  1  0.65552024  -0.20227071  -0.08017284  1
  O  O178  1  0.65552024  -0.20227071  0.25316049  1
  O  O179  1  0.65552024  -0.20227071  0.58649383  1
  O  O180  1  0.40552024  0.04772929  0.08649383  1
  O  O181  1  0.40552024  0.04772929  0.41982716  1
  O  O182  1  0.40552024  0.04772929  0.75316049  1
  O  O183  1  0.90552024  0.04772929  0.08649383  1
  O  O184  1  0.90552024  0.04772929  0.41982716  1
  O  O185  1  0.90552024  0.04772929  0.75316049  1
  O  O186  1  0.40552024  -0.45227071  0.08649383  1
  O  O187  1  0.40552024  -0.45227071  0.41982716  1
  O  O188  1  0.40552024  -0.45227071  0.75316049  1
  O  O189  1  0.90552024  -0.45227071  0.08649383  1
  O  O190  1  0.90552024  -0.45227071  0.41982716  1
  O  O191  1  0.90552024  -0.45227071  0.75316049  1
  O  O192  1  0.09447976  0.45227071  0.08649383  1
  O  O193  1  0.09447976  0.45227071  0.41982716  1
  O  O194  1  0.09447976  0.45227071  0.75316049  1
  O  O195  1  0.59447976  0.45227071  0.08649383  1
  O  O196  1  0.59447976  0.45227071  0.41982716  1
  O  O197  1  0.59447976  0.45227071  0.75316049  1
  O  O198  1  0.09447976  -0.04772929  0.08649383  1
  O  O199  1  0.09447976  -0.04772929  0.41982716  1
  O  O200  1  0.09447976  -0.04772929  0.75316049  1
  O  O201  1  0.59447976  -0.04772929  0.08649383  1
  O  O202  1  0.59447976  -0.04772929  0.41982716  1
  O  O203  1  0.59447976  -0.04772929  0.75316049  1
  O  O204  1  0.34447976  0.20227071  0.25316049  1
  O  O205  1  0.34447976  0.20227071  0.58649383  1
  O  O206  1  0.34447976  0.20227071  0.91982716  1
  O  O207  1  0.84447976  0.20227071  0.25316049  1
  O  O208  1  0.84447976  0.20227071  0.58649383  1
  O  O209  1  0.84447976  0.20227071  0.91982716  1
  O  O210  1  0.34447976  -0.29772929  0.25316049  1
  O  O211  1  0.34447976  -0.29772929  0.58649383  1
  O  O212  1  0.34447976  -0.29772929  0.91982716  1
  O  O213  1  0.84447976  -0.29772929  0.25316049  1
  O  O214  1  0.84447976  -0.29772929  0.58649383  1
  O  O215  1  0.84447976  -0.29772929  0.91982716  1
  O  O216  1  -0.04772929  0.40552024  0.08649383  1
  O  O217  1  -0.04772929  0.40552024  0.41982716  1
  O  O218  1  -0.04772929  0.40552024  0.75316049  1
  O  O219  1  0.45227071  0.40552024  0.08649383  1
  O  O220  1  0.45227071  0.40552024  0.41982716  1
  O  O221  1  0.45227071  0.40552024  0.75316049  1
  O  O222  1  -0.04772929  -0.09447976  0.08649383  1
  O  O223  1  -0.04772929  -0.09447976  0.41982716  1
  O  O224  1  -0.04772929  -0.09447976  0.75316049  1
  O  O225  1  0.45227071  -0.09447976  0.08649383  1
  O  O226  1  0.45227071  -0.09447976  0.41982716  1
  O  O227  1  0.45227071  -0.09447976  0.75316049  1
  O  O228  1  0.20227071  0.15552024  0.25316049  1
  O  O229  1  0.20227071  0.15552024  0.58649383  1
  O  O230  1  0.20227071  0.15552024  0.91982716  1
  O  O231  1  0.70227071  0.15552024  0.25316049  1
  O  O232  1  0.70227071  0.15552024  0.58649383  1
  O  O233  1  0.70227071  0.15552024  0.91982716  1
  O  O234  1  0.20227071  -0.34447976  0.25316049  1
  O  O235  1  0.20227071  -0.34447976  0.58649383  1
  O  O236  1  0.20227071  -0.34447976  0.91982716  1
  O  O237  1  0.70227071  -0.34447976  0.25316049  1
  O  O238  1  0.70227071  -0.34447976  0.58649383  1
  O  O239  1  0.70227071  -0.34447976  0.91982716  1
  O  O240  1  -0.04772929  0.40552024  0.24683951  1
  O  O241  1  -0.04772929  0.40552024  0.58017284  1
  O  O242  1  -0.04772929  0.40552024  0.91350617  1
  O  O243  1  0.45227071  0.40552024  0.24683951  1
  O  O244  1  0.45227071  0.40552024  0.58017284  1
  O  O245  1  0.45227071  0.40552024  0.91350617  1
  O  O246  1  -0.04772929  -0.09447976  0.24683951  1
  O  O247  1  -0.04772929  -0.09447976  0.58017284  1
  O  O248  1  -0.04772929  -0.09447976  0.91350617  1
  O  O249  1  0.45227071  -0.09447976  0.24683951  1
  O  O250  1  0.45227071  -0.09447976  0.58017284  1
  O  O251  1  0.45227071  -0.09447976  0.91350617  1
  O  O252  1  0.20227071  0.15552024  0.41350617  1
  O  O253  1  0.20227071  0.15552024  0.74683951  1
  O  O254  1  0.20227071  0.15552024  1.08017284  1
  O  O255  1  0.70227071  0.15552024  0.41350617  1
  O  O256  1  0.70227071  0.15552024  0.74683951  1
  O  O257  1  0.70227071  0.15552024  1.08017284  1
  O  O258  1  0.20227071  -0.34447976  0.41350617  1
  O  O259  1  0.20227071  -0.34447976  0.74683951  1
  O  O260  1  0.20227071  -0.34447976  1.08017284  1
  O  O261  1  0.70227071  -0.34447976  0.41350617  1
  O  O262  1  0.70227071  -0.34447976  0.74683951  1
  O  O263  1  0.70227071  -0.34447976  1.08017284  1
  O  O264  1  0.09447976  0.45227071  0.24683951  1
  O  O265  1  0.09447976  0.45227071  0.58017284  1
  O  O266  1  0.09447976  0.45227071  0.91350617  1
  O  O267  1  0.59447976  0.45227071  0.24683951  1
  O  O268  1  0.59447976  0.45227071  0.58017284  1
  O  O269  1  0.59447976  0.45227071  0.91350617  1
  O  O270  1  0.09447976  -0.04772929  0.24683951  1
  O  O271  1  0.09447976  -0.04772929  0.58017284  1
  O  O272  1  0.09447976  -0.04772929  0.91350617  1
  O  O273  1  0.59447976  -0.04772929  0.24683951  1
  O  O274  1  0.59447976  -0.04772929  0.58017284  1
  O  O275  1  0.59447976  -0.04772929  0.91350617  1
  O  O276  1  0.34447976  0.20227071  0.41350617  1
  O  O277  1  0.34447976  0.20227071  0.74683951  1
  O  O278  1  0.34447976  0.20227071  1.08017284  1
  O  O279  1  0.84447976  0.20227071  0.41350617  1
  O  O280  1  0.84447976  0.20227071  0.74683951  1
  O  O281  1  0.84447976  0.20227071  1.08017284  1
  O  O282  1  0.34447976  -0.29772929  0.41350617  1
  O  O283  1  0.34447976  -0.29772929  0.74683951  1
  O  O284  1  0.34447976  -0.29772929  1.08017284  1
  O  O285  1  0.84447976  -0.29772929  0.41350617  1
  O  O286  1  0.84447976  -0.29772929  0.74683951  1
  O  O287  1  0.84447976  -0.29772929  1.08017284  1
  O  O288  1  0.00000000  0.25000000  0.08333333  1
  O  O289  1  0.00000000  0.25000000  0.41666667  1
  O  O290  1  0.00000000  0.25000000  0.75000000  1
  O  O291  1  0.50000000  0.25000000  0.08333333  1
  O  O292  1  0.50000000  0.25000000  0.41666667  1
  O  O293  1  0.50000000  0.25000000  0.75000000  1
  O  O294  1  0.00000000  -0.25000000  0.08333333  1
  O  O295  1  0.00000000  -0.25000000  0.41666667  1
  O  O296  1  0.00000000  -0.25000000  0.75000000  1
  O  O297  1  0.50000000  -0.25000000  0.08333333  1
  O  O298  1  0.50000000  -0.25000000  0.41666667  1
  O  O299  1  0.50000000  -0.25000000  0.75000000  1
  O  O300  1  0.25000000  0.00000000  0.25000000  1
  O  O301  1  0.25000000  0.00000000  0.58333333  1
  O  O302  1  0.25000000  0.00000000  0.91666667  1
  O  O303  1  0.75000000  0.00000000  0.25000000  1
  O  O304  1  0.75000000  0.00000000  0.58333333  1
  O  O305  1  0.75000000  0.00000000  0.91666667  1
  O  O306  1  0.25000000  -0.50000000  0.25000000  1
  O  O307  1  0.25000000  -0.50000000  0.58333333  1
  O  O308  1  0.25000000  -0.50000000  0.91666667  1
  O  O309  1  0.75000000  -0.50000000  0.25000000  1
  O  O310  1  0.75000000  -0.50000000  0.58333333  1
  O  O311  1  0.75000000  -0.50000000  0.91666667  1
  O  O312  1  0.25000000  0.50000000  0.08333333  1
  O  O313  1  0.25000000  0.50000000  0.41666667  1
  O  O314  1  0.25000000  0.50000000  0.75000000  1
  O  O315  1  0.75000000  0.50000000  0.08333333  1
  O  O316  1  0.75000000  0.50000000  0.41666667  1
  O  O317  1  0.75000000  0.50000000  0.75000000  1
  O  O318  1  0.25000000  0.00000000  0.08333333  1
  O  O319  1  0.25000000  0.00000000  0.41666667  1
  O  O320  1  0.25000000  0.00000000  0.75000000  1
  O  O321  1  0.75000000  0.00000000  0.08333333  1
  O  O322  1  0.75000000  0.00000000  0.41666667  1
  O  O323  1  0.75000000  0.00000000  0.75000000  1
  O  O324  1  0.50000000  0.25000000  0.25000000  1
  O  O325  1  0.50000000  0.25000000  0.58333333  1
  O  O326  1  0.50000000  0.25000000  0.91666667  1
  O  O327  1  1.00000000  0.25000000  0.25000000  1
  O  O328  1  1.00000000  0.25000000  0.58333333  1
  O  O329  1  1.00000000  0.25000000  0.91666667  1
  O  O330  1  0.50000000  -0.25000000  0.25000000  1
  O  O331  1  0.50000000  -0.25000000  0.58333333  1
  O  O332  1  0.50000000  -0.25000000  0.91666667  1
  O  O333  1  1.00000000  -0.25000000  0.25000000  1
  O  O334  1  1.00000000  -0.25000000  0.58333333  1
  O  O335  1  1.00000000  -0.25000000  0.91666667  1
  O  O336  1  0.29772929  0.34447976  0.08017284  1
  O  O337  1  0.29772929  0.34447976  0.41350617  1
  O  O338  1  0.29772929  0.34447976  0.74683951  1
  O  O339  1  0.79772929  0.34447976  0.08017284  1
  O  O340  1  0.79772929  0.34447976  0.41350617  1
  O  O341  1  0.79772929  0.34447976  0.74683951  1
  O  O342  1  0.29772929  -0.15552024  0.08017284  1
  O  O343  1  0.29772929  -0.15552024  0.41350617  1
  O  O344  1  0.29772929  -0.15552024  0.74683951  1
  O  O345  1  0.79772929  -0.15552024  0.08017284  1
  O  O346  1  0.79772929  -0.15552024  0.41350617  1
  O  O347  1  0.79772929  -0.15552024  0.74683951  1
  O  O348  1  0.54772929  0.09447976  0.24683951  1
  O  O349  1  0.54772929  0.09447976  0.58017284  1
  O  O350  1  0.54772929  0.09447976  0.91350617  1
  O  O351  1  1.04772929  0.09447976  0.24683951  1
  O  O352  1  1.04772929  0.09447976  0.58017284  1
  O  O353  1  1.04772929  0.09447976  0.91350617  1
  O  O354  1  0.54772929  -0.40552024  0.24683951  1
  O  O355  1  0.54772929  -0.40552024  0.58017284  1
  O  O356  1  0.54772929  -0.40552024  0.91350617  1
  O  O357  1  1.04772929  -0.40552024  0.24683951  1
  O  O358  1  1.04772929  -0.40552024  0.58017284  1
  O  O359  1  1.04772929  -0.40552024  0.91350617  1
  O  O360  1  0.15552024  0.29772929  0.08017284  1
  O  O361  1  0.15552024  0.29772929  0.41350617  1
  O  O362  1  0.15552024  0.29772929  0.74683951  1
  O  O363  1  0.65552024  0.29772929  0.08017284  1
  O  O364  1  0.65552024  0.29772929  0.41350617  1
  O  O365  1  0.65552024  0.29772929  0.74683951  1
  O  O366  1  0.15552024  -0.20227071  0.08017284  1
  O  O367  1  0.15552024  -0.20227071  0.41350617  1
  O  O368  1  0.15552024  -0.20227071  0.74683951  1
  O  O369  1  0.65552024  -0.20227071  0.08017284  1
  O  O370  1  0.65552024  -0.20227071  0.41350617  1
  O  O371  1  0.65552024  -0.20227071  0.74683951  1
  O  O372  1  0.40552024  0.04772929  0.24683951  1
  O  O373  1  0.40552024  0.04772929  0.58017284  1
  O  O374  1  0.40552024  0.04772929  0.91350617  1
  O  O375  1  0.90552024  0.04772929  0.24683951  1
  O  O376  1  0.90552024  0.04772929  0.58017284  1
  O  O377  1  0.90552024  0.04772929  0.91350617  1
  O  O378  1  0.40552024  -0.45227071  0.24683951  1
  O  O379  1  0.40552024  -0.45227071  0.58017284  1
  O  O380  1  0.40552024  -0.45227071  0.91350617  1
  O  O381  1  0.90552024  -0.45227071  0.24683951  1
  O  O382  1  0.90552024  -0.45227071  0.58017284  1
  O  O383  1  0.90552024  -0.45227071  0.91350617  1
