# generated using pymatgen
data_Sr2Zr7O16
_symmetry_space_group_name_H-M   'P 1'
_cell_length_a   12.77860644
_cell_length_b   19.16790966
_cell_length_c   26.71958377
_cell_angle_alpha   90.00000000
_cell_angle_beta   90.00000000
_cell_angle_gamma   120.00000000
_symmetry_Int_Tables_number   1
_chemical_formula_structural   Sr2Zr7O16
_chemical_formula_sum   'Sr36 Zr126 O288'
_cell_volume   5667.85287898
_cell_formula_units_Z   18
loop_
 _symmetry_equiv_pos_site_id
 _symmetry_equiv_pos_as_xyz
  1  'x, y, z'
loop_
 _atom_site_type_symbol
 _atom_site_label
 _atom_site_symmetry_multiplicity
 _atom_site_fract_x
 _atom_site_fract_y
 _atom_site_fract_z
 _atom_site_occupancy
  Sr  Sr0  1  0.00000000  -0.00000000  0.66650329  1
  Sr  Sr1  1  0.00000000  0.33333333  0.66650329  1
  Sr  Sr2  1  0.00000000  0.66666667  0.66650329  1
  Sr  Sr3  1  0.50000000  -0.00000000  0.66650329  1
  Sr  Sr4  1  0.50000000  0.33333333  0.66650329  1
  Sr  Sr5  1  0.50000000  0.66666667  0.66650329  1
  Sr  Sr6  1  0.33333333  0.11111111  0.99983662  1
  Sr  Sr7  1  0.33333333  0.44444444  0.99983662  1
  Sr  Sr8  1  0.33333333  0.77777778  0.99983662  1
  Sr  Sr9  1  0.83333333  0.11111111  0.99983662  1
  Sr  Sr10  1  0.83333333  0.44444444  0.99983662  1
  Sr  Sr11  1  0.83333333  0.77777778  0.99983662  1
  Sr  Sr12  1  0.16666667  0.22222222  1.33316996  1
  Sr  Sr13  1  0.16666667  0.55555556  1.33316996  1
  Sr  Sr14  1  0.16666667  0.88888889  1.33316996  1
  Sr  Sr15  1  0.66666667  0.22222222  1.33316996  1
  Sr  Sr16  1  0.66666667  0.55555556  1.33316996  1
  Sr  Sr17  1  0.66666667  0.88888889  1.33316996  1
  Sr  Sr18  1  -0.00000000  0.00000000  0.33349671  1
  Sr  Sr19  1  -0.00000000  0.33333333  0.33349671  1
  Sr  Sr20  1  0.00000000  0.66666667  0.33349671  1
  Sr  Sr21  1  0.50000000  0.00000000  0.33349671  1
  Sr  Sr22  1  0.50000000  0.33333333  0.33349671  1
  Sr  Sr23  1  0.50000000  0.66666667  0.33349671  1
  Sr  Sr24  1  0.33333333  0.11111111  0.66683004  1
  Sr  Sr25  1  0.33333333  0.44444444  0.66683004  1
  Sr  Sr26  1  0.33333333  0.77777778  0.66683004  1
  Sr  Sr27  1  0.83333333  0.11111111  0.66683004  1
  Sr  Sr28  1  0.83333333  0.44444444  0.66683004  1
  Sr  Sr29  1  0.83333333  0.77777778  0.66683004  1
  Sr  Sr30  1  0.16666667  0.22222222  1.00016338  1
  Sr  Sr31  1  0.16666667  0.55555556  1.00016338  1
  Sr  Sr32  1  0.16666667  0.88888889  1.00016338  1
  Sr  Sr33  1  0.66666667  0.22222222  1.00016338  1
  Sr  Sr34  1  0.66666667  0.55555556  1.00016338  1
  Sr  Sr35  1  0.66666667  0.88888889  1.00016338  1
  Zr  Zr36  1  0.16740752  0.01308126  0.55155523  1
  Zr  Zr37  1  0.16740752  0.34641460  0.55155523  1
  Zr  Zr38  1  0.16740752  0.67974793  0.55155523  1
  Zr  Zr39  1  0.66740752  0.01308126  0.55155523  1
  Zr  Zr40  1  0.66740752  0.34641460  0.55155523  1
  Zr  Zr41  1  0.66740752  0.67974793  0.55155523  1
  Zr  Zr42  1  0.50074085  0.12419238  0.88488856  1
  Zr  Zr43  1  0.50074085  0.45752571  0.88488856  1
  Zr  Zr44  1  0.50074085  0.79085904  0.88488856  1
  Zr  Zr45  1  1.00074085  0.12419238  0.88488856  1
  Zr  Zr46  1  1.00074085  0.45752571  0.88488856  1
  Zr  Zr47  1  1.00074085  0.79085904  0.88488856  1
  Zr  Zr48  1  0.33407418  0.23530349  1.21822190  1
  Zr  Zr49  1  0.33407418  0.56863682  1.21822190  1
  Zr  Zr50  1  0.33407418  0.90197015  1.21822190  1
  Zr  Zr51  1  0.83407418  0.23530349  1.21822190  1
  Zr  Zr52  1  0.83407418  0.56863682  1.21822190  1
  Zr  Zr53  1  0.83407418  0.90197015  1.21822190  1
  Zr  Zr54  1  0.01962190  -0.09852375  0.44844477  1
  Zr  Zr55  1  0.01962190  0.23480959  0.44844477  1
  Zr  Zr56  1  0.01962190  0.56814292  0.44844477  1
  Zr  Zr57  1  0.51962190  -0.09852375  0.44844477  1
  Zr  Zr58  1  0.51962190  0.23480959  0.44844477  1
  Zr  Zr59  1  0.51962190  0.56814292  0.44844477  1
  Zr  Zr60  1  0.35295523  0.01258737  0.78177810  1
  Zr  Zr61  1  0.35295523  0.34592070  0.78177810  1
  Zr  Zr62  1  0.35295523  0.67925403  0.78177810  1
  Zr  Zr63  1  0.85295523  0.01258737  0.78177810  1
  Zr  Zr64  1  0.85295523  0.34592070  0.78177810  1
  Zr  Zr65  1  0.85295523  0.67925403  0.78177810  1
  Zr  Zr66  1  0.18628856  0.12369848  1.11511144  1
  Zr  Zr67  1  0.18628856  0.45703181  1.11511144  1
  Zr  Zr68  1  0.18628856  0.79036514  1.11511144  1
  Zr  Zr69  1  0.68628856  0.12369848  1.11511144  1
  Zr  Zr70  1  0.68628856  0.45703181  1.11511144  1
  Zr  Zr71  1  0.68628856  0.79036514  1.11511144  1
  Zr  Zr72  1  0.14778562  0.11160501  0.44844477  1
  Zr  Zr73  1  0.14778562  0.44493834  0.44844477  1
  Zr  Zr74  1  0.14778562  0.77827168  0.44844477  1
  Zr  Zr75  1  0.64778562  0.11160501  0.44844477  1
  Zr  Zr76  1  0.64778562  0.44493834  0.44844477  1
  Zr  Zr77  1  0.64778562  0.77827168  0.44844477  1
  Zr  Zr78  1  0.48111895  0.22271612  0.78177810  1
  Zr  Zr79  1  0.48111895  0.55604945  0.78177810  1
  Zr  Zr80  1  0.48111895  0.88938279  0.78177810  1
  Zr  Zr81  1  0.98111895  0.22271612  0.78177810  1
  Zr  Zr82  1  0.98111895  0.55604945  0.78177810  1
  Zr  Zr83  1  0.98111895  0.88938279  0.78177810  1
  Zr  Zr84  1  0.31445229  0.33382723  1.11511144  1
  Zr  Zr85  1  0.31445229  0.66716057  1.11511144  1
  Zr  Zr86  1  0.31445229  1.00049390  1.11511144  1
  Zr  Zr87  1  0.81445229  0.33382723  1.11511144  1
  Zr  Zr88  1  0.81445229  0.66716057  1.11511144  1
  Zr  Zr89  1  0.81445229  1.00049390  1.11511144  1
  Zr  Zr90  1  -0.00000000  -0.00000000  -0.00000000  1
  Zr  Zr91  1  0.00000000  0.33333333  -0.00000000  1
  Zr  Zr92  1  0.00000000  0.66666667  -0.00000000  1
  Zr  Zr93  1  0.50000000  -0.00000000  -0.00000000  1
  Zr  Zr94  1  0.50000000  0.33333333  -0.00000000  1
  Zr  Zr95  1  0.50000000  0.66666667  -0.00000000  1
  Zr  Zr96  1  0.33333333  0.11111111  0.33333333  1
  Zr  Zr97  1  0.33333333  0.44444444  0.33333333  1
  Zr  Zr98  1  0.33333333  0.77777778  0.33333333  1
  Zr  Zr99  1  0.83333333  0.11111111  0.33333333  1
  Zr  Zr100  1  0.83333333  0.44444444  0.33333333  1
  Zr  Zr101  1  0.83333333  0.77777778  0.33333333  1
  Zr  Zr102  1  0.16666667  0.22222222  0.66666667  1
  Zr  Zr103  1  0.16666667  0.55555556  0.66666667  1
  Zr  Zr104  1  0.16666667  0.88888889  0.66666667  1
  Zr  Zr105  1  0.66666667  0.22222222  0.66666667  1
  Zr  Zr106  1  0.66666667  0.55555556  0.66666667  1
  Zr  Zr107  1  0.66666667  0.88888889  0.66666667  1
  Zr  Zr108  1  -0.14778562  -0.11160501  0.55155523  1
  Zr  Zr109  1  -0.14778562  0.22172832  0.55155523  1
  Zr  Zr110  1  -0.14778562  0.55506166  0.55155523  1
  Zr  Zr111  1  0.35221438  -0.11160501  0.55155523  1
  Zr  Zr112  1  0.35221438  0.22172832  0.55155523  1
  Zr  Zr113  1  0.35221438  0.55506166  0.55155523  1
  Zr  Zr114  1  0.18554771  -0.00049390  0.88488856  1
  Zr  Zr115  1  0.18554771  0.33283943  0.88488856  1
  Zr  Zr116  1  0.18554771  0.66617277  0.88488856  1
  Zr  Zr117  1  0.68554771  -0.00049390  0.88488856  1
  Zr  Zr118  1  0.68554771  0.33283943  0.88488856  1
  Zr  Zr119  1  0.68554771  0.66617277  0.88488856  1
  Zr  Zr120  1  0.01888105  0.11061721  1.21822190  1
  Zr  Zr121  1  0.01888105  0.44395055  1.21822190  1
  Zr  Zr122  1  0.01888105  0.77728388  1.21822190  1
  Zr  Zr123  1  0.51888105  0.11061721  1.21822190  1
  Zr  Zr124  1  0.51888105  0.44395055  1.21822190  1
  Zr  Zr125  1  0.51888105  0.77728388  1.21822190  1
  Zr  Zr126  1  -0.01962190  0.09852375  0.55155523  1
  Zr  Zr127  1  -0.01962190  0.43185708  0.55155523  1
  Zr  Zr128  1  -0.01962190  0.76519041  0.55155523  1
  Zr  Zr129  1  0.48037810  0.09852375  0.55155523  1
  Zr  Zr130  1  0.48037810  0.43185708  0.55155523  1
  Zr  Zr131  1  0.48037810  0.76519041  0.55155523  1
  Zr  Zr132  1  0.31371144  0.20963486  0.88488856  1
  Zr  Zr133  1  0.31371144  0.54296819  0.88488856  1
  Zr  Zr134  1  0.31371144  0.87630152  0.88488856  1
  Zr  Zr135  1  0.81371144  0.20963486  0.88488856  1
  Zr  Zr136  1  0.81371144  0.54296819  0.88488856  1
  Zr  Zr137  1  0.81371144  0.87630152  0.88488856  1
  Zr  Zr138  1  0.14704477  0.32074597  1.21822190  1
  Zr  Zr139  1  0.14704477  0.65407930  1.21822190  1
  Zr  Zr140  1  0.14704477  0.98741263  1.21822190  1
  Zr  Zr141  1  0.64704477  0.32074597  1.21822190  1
  Zr  Zr142  1  0.64704477  0.65407930  1.21822190  1
  Zr  Zr143  1  0.64704477  0.98741263  1.21822190  1
  Zr  Zr144  1  -0.16740752  -0.01308126  0.44844477  1
  Zr  Zr145  1  -0.16740752  0.32025207  0.44844477  1
  Zr  Zr146  1  -0.16740752  0.65358540  0.44844477  1
  Zr  Zr147  1  0.33259248  -0.01308126  0.44844477  1
  Zr  Zr148  1  0.33259248  0.32025207  0.44844477  1
  Zr  Zr149  1  0.33259248  0.65358540  0.44844477  1
  Zr  Zr150  1  0.16592582  0.09802985  0.78177810  1
  Zr  Zr151  1  0.16592582  0.43136318  0.78177810  1
  Zr  Zr152  1  0.16592582  0.76469651  0.78177810  1
  Zr  Zr153  1  0.66592582  0.09802985  0.78177810  1
  Zr  Zr154  1  0.66592582  0.43136318  0.78177810  1
  Zr  Zr155  1  0.66592582  0.76469651  0.78177810  1
  Zr  Zr156  1  -0.00074085  0.20914096  1.11511144  1
  Zr  Zr157  1  -0.00074085  0.54247429  1.11511144  1
  Zr  Zr158  1  -0.00074085  0.87580762  1.11511144  1
  Zr  Zr159  1  0.49925915  0.20914096  1.11511144  1
  Zr  Zr160  1  0.49925915  0.54247429  1.11511144  1
  Zr  Zr161  1  0.49925915  0.87580762  1.11511144  1
  O  O162  1  0.16939859  -0.01756666  0.62445597  1
  O  O163  1  0.16939859  0.31576668  0.62445597  1
  O  O164  1  0.16939859  0.64910001  0.62445597  1
  O  O165  1  0.66939859  -0.01756666  0.62445597  1
  O  O166  1  0.66939859  0.31576668  0.62445597  1
  O  O167  1  0.66939859  0.64910001  0.62445597  1
  O  O168  1  0.50273193  0.09354445  0.95778931  1
  O  O169  1  0.50273193  0.42687779  0.95778931  1
  O  O170  1  0.50273193  0.76021112  0.95778931  1
  O  O171  1  1.00273193  0.09354445  0.95778931  1
  O  O172  1  1.00273193  0.42687779  0.95778931  1
  O  O173  1  1.00273193  0.76021112  0.95778931  1
  O  O174  1  0.33606526  0.20465557  1.29112264  1
  O  O175  1  0.33606526  0.53798890  1.29112264  1
  O  O176  1  0.33606526  0.87132223  1.29112264  1
  O  O177  1  0.83606526  0.20465557  1.29112264  1
  O  O178  1  0.83606526  0.53798890  1.29112264  1
  O  O179  1  0.83606526  0.87132223  1.29112264  1
  O  O180  1  0.18815334  0.01856663  0.46994368  1
  O  O181  1  0.18815334  0.35189997  0.46994368  1
  O  O182  1  0.18815334  0.68523330  0.46994368  1
  O  O183  1  0.68815334  0.01856663  0.46994368  1
  O  O184  1  0.68815334  0.35189997  0.46994368  1
  O  O185  1  0.68815334  0.68523330  0.46994368  1
  O  O186  1  0.52148667  0.12967774  0.80327701  1
  O  O187  1  0.52148667  0.46301108  0.80327701  1
  O  O188  1  0.52148667  0.79634441  0.80327701  1
  O  O189  1  1.02148667  0.12967774  0.80327701  1
  O  O190  1  1.02148667  0.46301108  0.80327701  1
  O  O191  1  1.02148667  0.79634441  0.80327701  1
  O  O192  1  0.35482000  0.24078885  1.13661034  1
  O  O193  1  0.35482000  0.57412219  1.13661034  1
  O  O194  1  0.35482000  0.90745552  1.13661034  1
  O  O195  1  0.85482000  0.24078885  1.13661034  1
  O  O196  1  0.85482000  0.57412219  1.13661034  1
  O  O197  1  0.85482000  0.90745552  1.13661034  1
  O  O198  1  0.02784995  -0.10686893  0.53005632  1
  O  O199  1  0.02784995  0.22646441  0.53005632  1
  O  O200  1  0.02784995  0.55979774  0.53005632  1
  O  O201  1  0.52784995  -0.10686893  0.53005632  1
  O  O202  1  0.52784995  0.22646441  0.53005632  1
  O  O203  1  0.52784995  0.55979774  0.53005632  1
  O  O204  1  0.36118328  0.00424219  0.86338966  1
  O  O205  1  0.36118328  0.33757552  0.86338966  1
  O  O206  1  0.36118328  0.67090885  0.86338966  1
  O  O207  1  0.86118328  0.00424219  0.86338966  1
  O  O208  1  0.86118328  0.33757552  0.86338966  1
  O  O209  1  0.86118328  0.67090885  0.86338966  1
  O  O210  1  0.19451662  0.11535330  1.19672299  1
  O  O211  1  0.19451662  0.44868663  1.19672299  1
  O  O212  1  0.19451662  0.78201996  1.19672299  1
  O  O213  1  0.69451662  0.11535330  1.19672299  1
  O  O214  1  0.69451662  0.44868663  1.19672299  1
  O  O215  1  0.69451662  0.78201996  1.19672299  1
  O  O216  1  -0.02634999  -0.13049905  0.37554403  1
  O  O217  1  -0.02634999  0.20283428  0.37554403  1
  O  O218  1  -0.02634999  0.53616761  0.37554403  1
  O  O219  1  0.47365001  -0.13049905  0.37554403  1
  O  O220  1  0.47365001  0.20283428  0.37554403  1
  O  O221  1  0.47365001  0.53616761  0.37554403  1
  O  O222  1  0.30698335  -0.01938794  0.70887736  1
  O  O223  1  0.30698335  0.31394539  0.70887736  1
  O  O224  1  0.30698335  0.64727872  0.70887736  1
  O  O225  1  0.80698335  -0.01938794  0.70887736  1
  O  O226  1  0.80698335  0.31394539  0.70887736  1
  O  O227  1  0.80698335  0.64727872  0.70887736  1
  O  O228  1  0.14031668  0.09172317  1.04221069  1
  O  O229  1  0.14031668  0.42505650  1.04221069  1
  O  O230  1  0.14031668  0.75838984  1.04221069  1
  O  O231  1  0.64031668  0.09172317  1.04221069  1
  O  O232  1  0.64031668  0.42505650  1.04221069  1
  O  O233  1  0.64031668  0.75838984  1.04221069  1
  O  O234  1  0.19574858  0.11293240  0.37554403  1
  O  O235  1  0.19574858  0.44626573  0.37554403  1
  O  O236  1  0.19574858  0.77959906  0.37554403  1
  O  O237  1  0.69574858  0.11293240  0.37554403  1
  O  O238  1  0.69574858  0.44626573  0.37554403  1
  O  O239  1  0.69574858  0.77959906  0.37554403  1
  O  O240  1  0.52908191  0.22404351  0.70887736  1
  O  O241  1  0.52908191  0.55737684  0.70887736  1
  O  O242  1  0.52908191  0.89071017  0.70887736  1
  O  O243  1  1.02908191  0.22404351  0.70887736  1
  O  O244  1  1.02908191  0.55737684  0.70887736  1
  O  O245  1  1.02908191  0.89071017  0.70887736  1
  O  O246  1  0.36241525  0.33515462  1.04221069  1
  O  O247  1  0.36241525  0.66848795  1.04221069  1
  O  O248  1  0.36241525  1.00182129  1.04221069  1
  O  O249  1  0.86241525  0.33515462  1.04221069  1
  O  O250  1  0.86241525  0.66848795  1.04221069  1
  O  O251  1  0.86241525  1.00182129  1.04221069  1
  O  O252  1  0.16030339  0.12543556  0.53005632  1
  O  O253  1  0.16030339  0.45876889  0.53005632  1
  O  O254  1  0.16030339  0.79210223  0.53005632  1
  O  O255  1  0.66030339  0.12543556  0.53005632  1
  O  O256  1  0.66030339  0.45876889  0.53005632  1
  O  O257  1  0.66030339  0.79210223  0.53005632  1
  O  O258  1  0.49363672  0.23654667  0.86338966  1
  O  O259  1  0.49363672  0.56988000  0.86338966  1
  O  O260  1  0.49363672  0.90321334  0.86338966  1
  O  O261  1  0.99363672  0.23654667  0.86338966  1
  O  O262  1  0.99363672  0.56988000  0.86338966  1
  O  O263  1  0.99363672  0.90321334  0.86338966  1
  O  O264  1  0.32697006  0.34765778  1.19672299  1
  O  O265  1  0.32697006  0.68099111  1.19672299  1
  O  O266  1  0.32697006  1.01432445  1.19672299  1
  O  O267  1  0.82697006  0.34765778  1.19672299  1
  O  O268  1  0.82697006  0.68099111  1.19672299  1
  O  O269  1  0.82697006  1.01432445  1.19672299  1
  O  O270  1  0.00000000  -0.00000000  0.23708143  1
  O  O271  1  0.00000000  0.33333333  0.23708143  1
  O  O272  1  0.00000000  0.66666667  0.23708143  1
  O  O273  1  0.50000000  -0.00000000  0.23708143  1
  O  O274  1  0.50000000  0.33333333  0.23708143  1
  O  O275  1  0.50000000  0.66666667  0.23708143  1
  O  O276  1  0.33333333  0.11111111  0.57041476  1
  O  O277  1  0.33333333  0.44444444  0.57041476  1
  O  O278  1  0.33333333  0.77777778  0.57041476  1
  O  O279  1  0.83333333  0.11111111  0.57041476  1
  O  O280  1  0.83333333  0.44444444  0.57041476  1
  O  O281  1  0.83333333  0.77777778  0.57041476  1
  O  O282  1  0.16666667  0.22222222  0.90374809  1
  O  O283  1  0.16666667  0.55555556  0.90374809  1
  O  O284  1  0.16666667  0.88888889  0.90374809  1
  O  O285  1  0.66666667  0.22222222  0.90374809  1
  O  O286  1  0.66666667  0.55555556  0.90374809  1
  O  O287  1  0.66666667  0.88888889  0.90374809  1
  O  O288  1  0.00000000  0.00000000  0.42806898  1
  O  O289  1  0.00000000  0.33333333  0.42806898  1
  O  O290  1  0.00000000  0.66666667  0.42806898  1
  O  O291  1  0.50000000  0.00000000  0.42806898  1
  O  O292  1  0.50000000  0.33333333  0.42806898  1
  O  O293  1  0.50000000  0.66666667  0.42806898  1
  O  O294  1  0.33333333  0.11111111  0.76140232  1
  O  O295  1  0.33333333  0.44444444  0.76140232  1
  O  O296  1  0.33333333  0.77777778  0.76140232  1
  O  O297  1  0.83333333  0.11111111  0.76140232  1
  O  O298  1  0.83333333  0.44444444  0.76140232  1
  O  O299  1  0.83333333  0.77777778  0.76140232  1
  O  O300  1  0.16666667  0.22222222  1.09473565  1
  O  O301  1  0.16666667  0.55555556  1.09473565  1
  O  O302  1  0.16666667  0.88888889  1.09473565  1
  O  O303  1  0.66666667  0.22222222  1.09473565  1
  O  O304  1  0.66666667  0.55555556  1.09473565  1
  O  O305  1  0.66666667  0.88888889  1.09473565  1
  O  O306  1  -0.00000000  -0.00000000  0.76291857  1
  O  O307  1  0.00000000  0.33333333  0.76291857  1
  O  O308  1  0.00000000  0.66666667  0.76291857  1
  O  O309  1  0.50000000  -0.00000000  0.76291857  1
  O  O310  1  0.50000000  0.33333333  0.76291857  1
  O  O311  1  0.50000000  0.66666667  0.76291857  1
  O  O312  1  0.33333333  0.11111111  1.09625191  1
  O  O313  1  0.33333333  0.44444444  1.09625191  1
  O  O314  1  0.33333333  0.77777778  1.09625191  1
  O  O315  1  0.83333333  0.11111111  1.09625191  1
  O  O316  1  0.83333333  0.44444444  1.09625191  1
  O  O317  1  0.83333333  0.77777778  1.09625191  1
  O  O318  1  0.16666667  0.22222222  1.42958524  1
  O  O319  1  0.16666667  0.55555556  1.42958524  1
  O  O320  1  0.16666667  0.88888889  1.42958524  1
  O  O321  1  0.66666667  0.22222222  1.42958524  1
  O  O322  1  0.66666667  0.55555556  1.42958524  1
  O  O323  1  0.66666667  0.88888889  1.42958524  1
  O  O324  1  0.00000000  0.00000000  0.57193102  1
  O  O325  1  0.00000000  0.33333333  0.57193102  1
  O  O326  1  0.00000000  0.66666667  0.57193102  1
  O  O327  1  0.50000000  0.00000000  0.57193102  1
  O  O328  1  0.50000000  0.33333333  0.57193102  1
  O  O329  1  0.50000000  0.66666667  0.57193102  1
  O  O330  1  0.33333333  0.11111111  0.90526435  1
  O  O331  1  0.33333333  0.44444444  0.90526435  1
  O  O332  1  0.33333333  0.77777778  0.90526435  1
  O  O333  1  0.83333333  0.11111111  0.90526435  1
  O  O334  1  0.83333333  0.44444444  0.90526435  1
  O  O335  1  0.83333333  0.77777778  0.90526435  1
  O  O336  1  0.16666667  0.22222222  1.23859768  1
  O  O337  1  0.16666667  0.55555556  1.23859768  1
  O  O338  1  0.16666667  0.88888889  1.23859768  1
  O  O339  1  0.66666667  0.22222222  1.23859768  1
  O  O340  1  0.66666667  0.55555556  1.23859768  1
  O  O341  1  0.66666667  0.88888889  1.23859768  1
  O  O342  1  -0.16030339  -0.12543556  0.46994368  1
  O  O343  1  -0.16030339  0.20789777  0.46994368  1
  O  O344  1  -0.16030339  0.54123111  0.46994368  1
  O  O345  1  0.33969661  -0.12543556  0.46994368  1
  O  O346  1  0.33969661  0.20789777  0.46994368  1
  O  O347  1  0.33969661  0.54123111  0.46994368  1
  O  O348  1  0.17302994  -0.01432445  0.80327701  1
  O  O349  1  0.17302994  0.31900889  0.80327701  1
  O  O350  1  0.17302994  0.65234222  0.80327701  1
  O  O351  1  0.67302994  -0.01432445  0.80327701  1
  O  O352  1  0.67302994  0.31900889  0.80327701  1
  O  O353  1  0.67302994  0.65234222  0.80327701  1
  O  O354  1  0.00636328  0.09678666  1.13661034  1
  O  O355  1  0.00636328  0.43012000  1.13661034  1
  O  O356  1  0.00636328  0.76345333  1.13661034  1
  O  O357  1  0.50636328  0.09678666  1.13661034  1
  O  O358  1  0.50636328  0.43012000  1.13661034  1
  O  O359  1  0.50636328  0.76345333  1.13661034  1
  O  O360  1  -0.19574858  -0.11293240  0.62445597  1
  O  O361  1  -0.19574858  0.22040094  0.62445597  1
  O  O362  1  -0.19574858  0.55373427  0.62445597  1
  O  O363  1  0.30425142  -0.11293240  0.62445597  1
  O  O364  1  0.30425142  0.22040094  0.62445597  1
  O  O365  1  0.30425142  0.55373427  0.62445597  1
  O  O366  1  0.13758475  -0.00182129  0.95778931  1
  O  O367  1  0.13758475  0.33151205  0.95778931  1
  O  O368  1  0.13758475  0.66484538  0.95778931  1
  O  O369  1  0.63758475  -0.00182129  0.95778931  1
  O  O370  1  0.63758475  0.33151205  0.95778931  1
  O  O371  1  0.63758475  0.66484538  0.95778931  1
  O  O372  1  -0.02908191  0.10928983  1.29112264  1
  O  O373  1  -0.02908191  0.44262316  1.29112264  1
  O  O374  1  -0.02908191  0.77595649  1.29112264  1
  O  O375  1  0.47091809  0.10928983  1.29112264  1
  O  O376  1  0.47091809  0.44262316  1.29112264  1
  O  O377  1  0.47091809  0.77595649  1.29112264  1
  O  O378  1  0.02634999  0.13049905  0.62445597  1
  O  O379  1  0.02634999  0.46383239  0.62445597  1
  O  O380  1  0.02634999  0.79716572  0.62445597  1
  O  O381  1  0.52634999  0.13049905  0.62445597  1
  O  O382  1  0.52634999  0.46383239  0.62445597  1
  O  O383  1  0.52634999  0.79716572  0.62445597  1
  O  O384  1  0.35968332  0.24161016  0.95778931  1
  O  O385  1  0.35968332  0.57494350  0.95778931  1
  O  O386  1  0.35968332  0.90827683  0.95778931  1
  O  O387  1  0.85968332  0.24161016  0.95778931  1
  O  O388  1  0.85968332  0.57494350  0.95778931  1
  O  O389  1  0.85968332  0.90827683  0.95778931  1
  O  O390  1  0.19301665  0.35272128  1.29112264  1
  O  O391  1  0.19301665  0.68605461  1.29112264  1
  O  O392  1  0.19301665  1.01938794  1.29112264  1
  O  O393  1  0.69301665  0.35272128  1.29112264  1
  O  O394  1  0.69301665  0.68605461  1.29112264  1
  O  O395  1  0.69301665  1.01938794  1.29112264  1
  O  O396  1  -0.02784995  0.10686893  0.46994368  1
  O  O397  1  -0.02784995  0.44020226  0.46994368  1
  O  O398  1  -0.02784995  0.77353559  0.46994368  1
  O  O399  1  0.47215005  0.10686893  0.46994368  1
  O  O400  1  0.47215005  0.44020226  0.46994368  1
  O  O401  1  0.47215005  0.77353559  0.46994368  1
  O  O402  1  0.30548338  0.21798004  0.80327701  1
  O  O403  1  0.30548338  0.55131337  0.80327701  1
  O  O404  1  0.30548338  0.88464670  0.80327701  1
  O  O405  1  0.80548338  0.21798004  0.80327701  1
  O  O406  1  0.80548338  0.55131337  0.80327701  1
  O  O407  1  0.80548338  0.88464670  0.80327701  1
  O  O408  1  0.13881672  0.32909115  1.13661034  1
  O  O409  1  0.13881672  0.66242448  1.13661034  1
  O  O410  1  0.13881672  0.99575781  1.13661034  1
  O  O411  1  0.63881672  0.32909115  1.13661034  1
  O  O412  1  0.63881672  0.66242448  1.13661034  1
  O  O413  1  0.63881672  0.99575781  1.13661034  1
  O  O414  1  -0.18815334  -0.01856663  0.53005632  1
  O  O415  1  -0.18815334  0.31476670  0.53005632  1
  O  O416  1  -0.18815334  0.64810003  0.53005632  1
  O  O417  1  0.31184666  -0.01856663  0.53005632  1
  O  O418  1  0.31184666  0.31476670  0.53005632  1
  O  O419  1  0.31184666  0.64810003  0.53005632  1
  O  O420  1  0.14518000  0.09254448  0.86338966  1
  O  O421  1  0.14518000  0.42587781  0.86338966  1
  O  O422  1  0.14518000  0.75921115  0.86338966  1
  O  O423  1  0.64518000  0.09254448  0.86338966  1
  O  O424  1  0.64518000  0.42587781  0.86338966  1
  O  O425  1  0.64518000  0.75921115  0.86338966  1
  O  O426  1  -0.02148667  0.20365559  1.19672299  1
  O  O427  1  -0.02148667  0.53698892  1.19672299  1
  O  O428  1  -0.02148667  0.87032226  1.19672299  1
  O  O429  1  0.47851333  0.20365559  1.19672299  1
  O  O430  1  0.47851333  0.53698892  1.19672299  1
  O  O431  1  0.47851333  0.87032226  1.19672299  1
  O  O432  1  -0.16939859  0.01756666  0.37554403  1
  O  O433  1  -0.16939859  0.35089999  0.37554403  1
  O  O434  1  -0.16939859  0.68423332  0.37554403  1
  O  O435  1  0.33060141  0.01756666  0.37554403  1
  O  O436  1  0.33060141  0.35089999  0.37554403  1
  O  O437  1  0.33060141  0.68423332  0.37554403  1
  O  O438  1  0.16393474  0.12867777  0.70887736  1
  O  O439  1  0.16393474  0.46201110  0.70887736  1
  O  O440  1  0.16393474  0.79534443  0.70887736  1
  O  O441  1  0.66393474  0.12867777  0.70887736  1
  O  O442  1  0.66393474  0.46201110  0.70887736  1
  O  O443  1  0.66393474  0.79534443  0.70887736  1
  O  O444  1  -0.00273193  0.23978888  1.04221069  1
  O  O445  1  -0.00273193  0.57312221  1.04221069  1
  O  O446  1  -0.00273193  0.90645555  1.04221069  1
  O  O447  1  0.49726807  0.23978888  1.04221069  1
  O  O448  1  0.49726807  0.57312221  1.04221069  1
  O  O449  1  0.49726807  0.90645555  1.04221069  1
