# generated using pymatgen
data_KNaV2O6
_symmetry_space_group_name_H-M   'P 1'
_cell_length_a   10.56902668
_cell_length_b   10.04979310
_cell_length_c   11.64585170
_cell_angle_alpha   90.00000000
_cell_angle_beta   104.69012472
_cell_angle_gamma   90.00000000
_symmetry_Int_Tables_number   1
_chemical_formula_structural   KNaV2O6
_chemical_formula_sum   'K8 Na8 V16 O48'
_cell_volume   1196.54685671
_cell_formula_units_Z   8
loop_
 _symmetry_equiv_pos_site_id
 _symmetry_equiv_pos_as_xyz
  1  'x, y, z'
loop_
 _atom_site_type_symbol
 _atom_site_label
 _atom_site_symmetry_multiplicity
 _atom_site_fract_x
 _atom_site_fract_y
 _atom_site_fract_z
 _atom_site_occupancy
  K  K0  1  0.50000000  -0.30289299  0.12500000  1
  K  K1  1  0.50000000  -0.30289299  0.62500000  1
  K  K2  1  1.00000000  0.19710701  0.12500000  1
  K  K3  1  1.00000000  0.19710701  0.62500000  1
  K  K4  1  0.50000000  0.30289299  0.37500000  1
  K  K5  1  0.50000000  0.30289299  0.87500000  1
  K  K6  1  1.00000000  0.80289299  0.37500000  1
  K  K7  1  1.00000000  0.80289299  0.87500000  1
  Na  Na8  1  0.50000000  0.09377822  0.12500000  1
  Na  Na9  1  0.50000000  0.09377822  0.62500000  1
  Na  Na10  1  1.00000000  0.59377822  0.12500000  1
  Na  Na11  1  1.00000000  0.59377822  0.62500000  1
  Na  Na12  1  0.50000000  -0.09377822  0.37500000  1
  Na  Na13  1  0.50000000  -0.09377822  0.87500000  1
  Na  Na14  1  1.00000000  0.40622178  0.37500000  1
  Na  Na15  1  1.00000000  0.40622178  0.87500000  1
  V  V16  1  0.78627127  0.08481237  0.35897717  1
  V  V17  1  0.78627127  0.08481237  0.85897717  1
  V  V18  1  1.28627127  0.58481237  0.35897717  1
  V  V19  1  1.28627127  0.58481237  0.85897717  1
  V  V20  1  0.21372873  0.08481237  0.39102283  1
  V  V21  1  0.21372873  0.08481237  0.89102283  1
  V  V22  1  0.71372873  0.58481237  0.39102283  1
  V  V23  1  0.71372873  0.58481237  0.89102283  1
  V  V24  1  0.21372873  -0.08481237  0.14102283  1
  V  V25  1  0.21372873  -0.08481237  0.64102283  1
  V  V26  1  0.71372873  0.41518763  0.14102283  1
  V  V27  1  0.71372873  0.41518763  0.64102283  1
  V  V28  1  0.78627127  -0.08481237  0.10897717  1
  V  V29  1  0.78627127  -0.08481237  0.60897717  1
  V  V30  1  1.28627127  0.41518763  0.10897717  1
  V  V31  1  1.28627127  0.41518763  0.60897717  1
  O  O32  1  0.34504227  0.26291182  0.14063944  1
  O  O33  1  0.34504227  0.26291182  0.64063944  1
  O  O34  1  0.84504227  0.76291182  0.14063944  1
  O  O35  1  0.84504227  0.76291182  0.64063944  1
  O  O36  1  0.65495773  0.26291182  0.10936056  1
  O  O37  1  0.65495773  0.26291182  0.60936056  1
  O  O38  1  1.15495773  0.76291182  0.10936056  1
  O  O39  1  1.15495773  0.76291182  0.60936056  1
  O  O40  1  0.65495773  -0.26291182  0.35936056  1
  O  O41  1  0.65495773  -0.26291182  0.85936056  1
  O  O42  1  1.15495773  0.23708818  0.35936056  1
  O  O43  1  1.15495773  0.23708818  0.85936056  1
  O  O44  1  0.34504227  -0.26291182  0.39063944  1
  O  O45  1  0.34504227  -0.26291182  0.89063944  1
  O  O46  1  0.84504227  0.23708818  0.39063944  1
  O  O47  1  0.84504227  0.23708818  0.89063944  1
  O  O48  1  0.15301675  0.01441292  0.00932436  1
  O  O49  1  0.15301675  0.01441292  0.50932436  1
  O  O50  1  0.65301675  0.51441292  0.00932436  1
  O  O51  1  0.65301675  0.51441292  0.50932436  1
  O  O52  1  0.84698325  0.01441292  0.24067564  1
  O  O53  1  0.84698325  0.01441292  0.74067564  1
  O  O54  1  1.34698325  0.51441292  0.24067564  1
  O  O55  1  1.34698325  0.51441292  0.74067564  1
  O  O56  1  0.84698325  -0.01441292  0.49067564  1
  O  O57  1  0.84698325  -0.01441292  0.99067564  1
  O  O58  1  1.34698325  0.48558708  0.49067564  1
  O  O59  1  1.34698325  0.48558708  0.99067564  1
  O  O60  1  0.15301675  -0.01441292  0.25932436  1
  O  O61  1  0.15301675  -0.01441292  0.75932436  1
  O  O62  1  0.65301675  0.48558708  0.25932436  1
  O  O63  1  0.65301675  0.48558708  0.75932436  1
  O  O64  1  0.62355391  0.08513447  0.32267317  1
  O  O65  1  0.62355391  0.08513447  0.82267317  1
  O  O66  1  1.12355391  0.58513447  0.32267317  1
  O  O67  1  1.12355391  0.58513447  0.82267317  1
  O  O68  1  0.37644609  0.08513447  0.42732683  1
  O  O69  1  0.37644609  0.08513447  0.92732683  1
  O  O70  1  0.87644609  0.58513447  0.42732683  1
  O  O71  1  0.87644609  0.58513447  0.92732683  1
  O  O72  1  0.37644609  -0.08513447  0.17732683  1
  O  O73  1  0.37644609  -0.08513447  0.67732683  1
  O  O74  1  0.87644609  0.41486553  0.17732683  1
  O  O75  1  0.87644609  0.41486553  0.67732683  1
  O  O76  1  0.62355391  -0.08513447  0.07267317  1
  O  O77  1  0.62355391  -0.08513447  0.57267317  1
  O  O78  1  1.12355391  0.41486553  0.07267317  1
  O  O79  1  1.12355391  0.41486553  0.57267317  1
