# generated using pymatgen
data_Rb3CuO2
_symmetry_space_group_name_H-M   'P 1'
_cell_length_a   20.01099298
_cell_length_b   19.15093170
_cell_length_c   18.62215235
_cell_angle_alpha   90.00000000
_cell_angle_beta   111.90090268
_cell_angle_gamma   90.00000000
_symmetry_Int_Tables_number   1
_chemical_formula_structural   Rb3CuO2
_chemical_formula_sum   'Rb144 Cu48 O96'
_cell_volume   6621.50954985
_cell_formula_units_Z   48
loop_
 _symmetry_equiv_pos_site_id
 _symmetry_equiv_pos_as_xyz
  1  'x, y, z'
loop_
 _atom_site_type_symbol
 _atom_site_label
 _atom_site_symmetry_multiplicity
 _atom_site_fract_x
 _atom_site_fract_y
 _atom_site_fract_z
 _atom_site_occupancy
  Rb  Rb0  1  0.08214990  0.48230413  0.25275486  1
  Rb  Rb1  1  0.08214990  0.48230413  0.75275486  1
  Rb  Rb2  1  0.08214990  0.98230413  0.25275486  1
  Rb  Rb3  1  0.08214990  0.98230413  0.75275486  1
  Rb  Rb4  1  0.41548324  0.48230413  0.25275486  1
  Rb  Rb5  1  0.41548324  0.48230413  0.75275486  1
  Rb  Rb6  1  0.41548324  0.98230413  0.25275486  1
  Rb  Rb7  1  0.41548324  0.98230413  0.75275486  1
  Rb  Rb8  1  0.74881657  0.48230413  0.25275486  1
  Rb  Rb9  1  0.74881657  0.48230413  0.75275486  1
  Rb  Rb10  1  0.74881657  0.98230413  0.25275486  1
  Rb  Rb11  1  0.74881657  0.98230413  0.75275486  1
  Rb  Rb12  1  0.25118343  0.23230413  0.49724514  1
  Rb  Rb13  1  0.25118343  0.23230413  0.99724514  1
  Rb  Rb14  1  0.25118343  0.73230413  0.49724514  1
  Rb  Rb15  1  0.25118343  0.73230413  0.99724514  1
  Rb  Rb16  1  0.58451676  0.23230413  0.49724514  1
  Rb  Rb17  1  0.58451676  0.23230413  0.99724514  1
  Rb  Rb18  1  0.58451676  0.73230413  0.49724514  1
  Rb  Rb19  1  0.58451676  0.73230413  0.99724514  1
  Rb  Rb20  1  0.91785010  0.23230413  0.49724514  1
  Rb  Rb21  1  0.91785010  0.23230413  0.99724514  1
  Rb  Rb22  1  0.91785010  0.73230413  0.49724514  1
  Rb  Rb23  1  0.91785010  0.73230413  0.99724514  1
  Rb  Rb24  1  0.25118343  0.01769587  0.24724514  1
  Rb  Rb25  1  0.25118343  0.01769587  0.74724514  1
  Rb  Rb26  1  0.25118343  0.51769587  0.24724514  1
  Rb  Rb27  1  0.25118343  0.51769587  0.74724514  1
  Rb  Rb28  1  0.58451676  0.01769587  0.24724514  1
  Rb  Rb29  1  0.58451676  0.01769587  0.74724514  1
  Rb  Rb30  1  0.58451676  0.51769587  0.24724514  1
  Rb  Rb31  1  0.58451676  0.51769587  0.74724514  1
  Rb  Rb32  1  0.91785010  0.01769587  0.24724514  1
  Rb  Rb33  1  0.91785010  0.01769587  0.74724514  1
  Rb  Rb34  1  0.91785010  0.51769587  0.24724514  1
  Rb  Rb35  1  0.91785010  0.51769587  0.74724514  1
  Rb  Rb36  1  0.08214990  0.26769587  0.00275486  1
  Rb  Rb37  1  0.08214990  0.26769587  0.50275486  1
  Rb  Rb38  1  0.08214990  0.76769587  0.00275486  1
  Rb  Rb39  1  0.08214990  0.76769587  0.50275486  1
  Rb  Rb40  1  0.41548324  0.26769587  0.00275486  1
  Rb  Rb41  1  0.41548324  0.26769587  0.50275486  1
  Rb  Rb42  1  0.41548324  0.76769587  0.00275486  1
  Rb  Rb43  1  0.41548324  0.76769587  0.50275486  1
  Rb  Rb44  1  0.74881657  0.26769587  0.00275486  1
  Rb  Rb45  1  0.74881657  0.26769587  0.50275486  1
  Rb  Rb46  1  0.74881657  0.76769587  0.00275486  1
  Rb  Rb47  1  0.74881657  0.76769587  0.50275486  1
  Rb  Rb48  1  0.08792091  0.26229492  0.31228740  1
  Rb  Rb49  1  0.08792091  0.26229492  0.81228740  1
  Rb  Rb50  1  0.08792091  0.76229492  0.31228740  1
  Rb  Rb51  1  0.08792091  0.76229492  0.81228740  1
  Rb  Rb52  1  0.42125425  0.26229492  0.31228740  1
  Rb  Rb53  1  0.42125425  0.26229492  0.81228740  1
  Rb  Rb54  1  0.42125425  0.76229492  0.31228740  1
  Rb  Rb55  1  0.42125425  0.76229492  0.81228740  1
  Rb  Rb56  1  0.75458758  0.26229492  0.31228740  1
  Rb  Rb57  1  0.75458758  0.26229492  0.81228740  1
  Rb  Rb58  1  0.75458758  0.76229492  0.31228740  1
  Rb  Rb59  1  0.75458758  0.76229492  0.81228740  1
  Rb  Rb60  1  0.24541242  0.01229492  0.43771260  1
  Rb  Rb61  1  0.24541242  0.01229492  0.93771260  1
  Rb  Rb62  1  0.24541242  0.51229492  0.43771260  1
  Rb  Rb63  1  0.24541242  0.51229492  0.93771260  1
  Rb  Rb64  1  0.57874575  0.01229492  0.43771260  1
  Rb  Rb65  1  0.57874575  0.01229492  0.93771260  1
  Rb  Rb66  1  0.57874575  0.51229492  0.43771260  1
  Rb  Rb67  1  0.57874575  0.51229492  0.93771260  1
  Rb  Rb68  1  0.91207909  0.01229492  0.43771260  1
  Rb  Rb69  1  0.91207909  0.01229492  0.93771260  1
  Rb  Rb70  1  0.91207909  0.51229492  0.43771260  1
  Rb  Rb71  1  0.91207909  0.51229492  0.93771260  1
  Rb  Rb72  1  0.24541242  0.23770508  0.18771260  1
  Rb  Rb73  1  0.24541242  0.23770508  0.68771260  1
  Rb  Rb74  1  0.24541242  0.73770508  0.18771260  1
  Rb  Rb75  1  0.24541242  0.73770508  0.68771260  1
  Rb  Rb76  1  0.57874575  0.23770508  0.18771260  1
  Rb  Rb77  1  0.57874575  0.23770508  0.68771260  1
  Rb  Rb78  1  0.57874575  0.73770508  0.18771260  1
  Rb  Rb79  1  0.57874575  0.73770508  0.68771260  1
  Rb  Rb80  1  0.91207909  0.23770508  0.18771260  1
  Rb  Rb81  1  0.91207909  0.23770508  0.68771260  1
  Rb  Rb82  1  0.91207909  0.73770508  0.18771260  1
  Rb  Rb83  1  0.91207909  0.73770508  0.68771260  1
  Rb  Rb84  1  0.08792091  0.48770508  0.06228740  1
  Rb  Rb85  1  0.08792091  0.48770508  0.56228740  1
  Rb  Rb86  1  0.08792091  0.98770508  0.06228740  1
  Rb  Rb87  1  0.08792091  0.98770508  0.56228740  1
  Rb  Rb88  1  0.42125425  0.48770508  0.06228740  1
  Rb  Rb89  1  0.42125425  0.48770508  0.56228740  1
  Rb  Rb90  1  0.42125425  0.98770508  0.06228740  1
  Rb  Rb91  1  0.42125425  0.98770508  0.56228740  1
  Rb  Rb92  1  0.75458758  0.48770508  0.06228740  1
  Rb  Rb93  1  0.75458758  0.48770508  0.56228740  1
  Rb  Rb94  1  0.75458758  0.98770508  0.06228740  1
  Rb  Rb95  1  0.75458758  0.98770508  0.56228740  1
  Rb  Rb96  1  0.25331707  0.39529587  0.09381151  1
  Rb  Rb97  1  0.25331707  0.39529587  0.59381151  1
  Rb  Rb98  1  0.25331707  0.89529587  0.09381151  1
  Rb  Rb99  1  0.25331707  0.89529587  0.59381151  1
  Rb  Rb100  1  0.58665040  0.39529587  0.09381151  1
  Rb  Rb101  1  0.58665040  0.39529587  0.59381151  1
  Rb  Rb102  1  0.58665040  0.89529587  0.09381151  1
  Rb  Rb103  1  0.58665040  0.89529587  0.59381151  1
  Rb  Rb104  1  0.91998373  0.39529587  0.09381151  1
  Rb  Rb105  1  0.91998373  0.39529587  0.59381151  1
  Rb  Rb106  1  0.91998373  0.89529587  0.09381151  1
  Rb  Rb107  1  0.91998373  0.89529587  0.59381151  1
  Rb  Rb108  1  0.08001627  0.14529587  0.15618849  1
  Rb  Rb109  1  0.08001627  0.14529587  0.65618849  1
  Rb  Rb110  1  0.08001627  0.64529587  0.15618849  1
  Rb  Rb111  1  0.08001627  0.64529587  0.65618849  1
  Rb  Rb112  1  0.41334960  0.14529587  0.15618849  1
  Rb  Rb113  1  0.41334960  0.14529587  0.65618849  1
  Rb  Rb114  1  0.41334960  0.64529587  0.15618849  1
  Rb  Rb115  1  0.41334960  0.64529587  0.65618849  1
  Rb  Rb116  1  0.74668293  0.14529587  0.15618849  1
  Rb  Rb117  1  0.74668293  0.14529587  0.65618849  1
  Rb  Rb118  1  0.74668293  0.64529587  0.15618849  1
  Rb  Rb119  1  0.74668293  0.64529587  0.65618849  1
  Rb  Rb120  1  0.08001627  0.10470413  0.40618849  1
  Rb  Rb121  1  0.08001627  0.10470413  0.90618849  1
  Rb  Rb122  1  0.08001627  0.60470413  0.40618849  1
  Rb  Rb123  1  0.08001627  0.60470413  0.90618849  1
  Rb  Rb124  1  0.41334960  0.10470413  0.40618849  1
  Rb  Rb125  1  0.41334960  0.10470413  0.90618849  1
  Rb  Rb126  1  0.41334960  0.60470413  0.40618849  1
  Rb  Rb127  1  0.41334960  0.60470413  0.90618849  1
  Rb  Rb128  1  0.74668293  0.10470413  0.40618849  1
  Rb  Rb129  1  0.74668293  0.10470413  0.90618849  1
  Rb  Rb130  1  0.74668293  0.60470413  0.40618849  1
  Rb  Rb131  1  0.74668293  0.60470413  0.90618849  1
  Rb  Rb132  1  0.25331707  0.35470413  0.34381151  1
  Rb  Rb133  1  0.25331707  0.35470413  0.84381151  1
  Rb  Rb134  1  0.25331707  0.85470413  0.34381151  1
  Rb  Rb135  1  0.25331707  0.85470413  0.84381151  1
  Rb  Rb136  1  0.58665040  0.35470413  0.34381151  1
  Rb  Rb137  1  0.58665040  0.35470413  0.84381151  1
  Rb  Rb138  1  0.58665040  0.85470413  0.34381151  1
  Rb  Rb139  1  0.58665040  0.85470413  0.84381151  1
  Rb  Rb140  1  0.91998373  0.35470413  0.34381151  1
  Rb  Rb141  1  0.91998373  0.35470413  0.84381151  1
  Rb  Rb142  1  0.91998373  0.85470413  0.34381151  1
  Rb  Rb143  1  0.91998373  0.85470413  0.84381151  1
  Cu  Cu144  1  0.09688086  0.41057137  0.41349553  1
  Cu  Cu145  1  0.09688086  0.41057137  0.91349553  1
  Cu  Cu146  1  0.09688086  0.91057137  0.41349553  1
  Cu  Cu147  1  0.09688086  0.91057137  0.91349553  1
  Cu  Cu148  1  0.43021419  0.41057137  0.41349553  1
  Cu  Cu149  1  0.43021419  0.41057137  0.91349553  1
  Cu  Cu150  1  0.43021419  0.91057137  0.41349553  1
  Cu  Cu151  1  0.43021419  0.91057137  0.91349553  1
  Cu  Cu152  1  0.76354753  0.41057137  0.41349553  1
  Cu  Cu153  1  0.76354753  0.41057137  0.91349553  1
  Cu  Cu154  1  0.76354753  0.91057137  0.41349553  1
  Cu  Cu155  1  0.76354753  0.91057137  0.91349553  1
  Cu  Cu156  1  0.23645247  0.16057137  0.33650447  1
  Cu  Cu157  1  0.23645247  0.16057137  0.83650447  1
  Cu  Cu158  1  0.23645247  0.66057137  0.33650447  1
  Cu  Cu159  1  0.23645247  0.66057137  0.83650447  1
  Cu  Cu160  1  0.56978581  0.16057137  0.33650447  1
  Cu  Cu161  1  0.56978581  0.16057137  0.83650447  1
  Cu  Cu162  1  0.56978581  0.66057137  0.33650447  1
  Cu  Cu163  1  0.56978581  0.66057137  0.83650447  1
  Cu  Cu164  1  0.90311914  0.16057137  0.33650447  1
  Cu  Cu165  1  0.90311914  0.16057137  0.83650447  1
  Cu  Cu166  1  0.90311914  0.66057137  0.33650447  1
  Cu  Cu167  1  0.90311914  0.66057137  0.83650447  1
  Cu  Cu168  1  0.23645247  0.08942863  0.08650447  1
  Cu  Cu169  1  0.23645247  0.08942863  0.58650447  1
  Cu  Cu170  1  0.23645247  0.58942863  0.08650447  1
  Cu  Cu171  1  0.23645247  0.58942863  0.58650447  1
  Cu  Cu172  1  0.56978581  0.08942863  0.08650447  1
  Cu  Cu173  1  0.56978581  0.08942863  0.58650447  1
  Cu  Cu174  1  0.56978581  0.58942863  0.08650447  1
  Cu  Cu175  1  0.56978581  0.58942863  0.58650447  1
  Cu  Cu176  1  0.90311914  0.08942863  0.08650447  1
  Cu  Cu177  1  0.90311914  0.08942863  0.58650447  1
  Cu  Cu178  1  0.90311914  0.58942863  0.08650447  1
  Cu  Cu179  1  0.90311914  0.58942863  0.58650447  1
  Cu  Cu180  1  0.09688086  0.33942863  0.16349553  1
  Cu  Cu181  1  0.09688086  0.33942863  0.66349553  1
  Cu  Cu182  1  0.09688086  0.83942863  0.16349553  1
  Cu  Cu183  1  0.09688086  0.83942863  0.66349553  1
  Cu  Cu184  1  0.43021419  0.33942863  0.16349553  1
  Cu  Cu185  1  0.43021419  0.33942863  0.66349553  1
  Cu  Cu186  1  0.43021419  0.83942863  0.16349553  1
  Cu  Cu187  1  0.43021419  0.83942863  0.66349553  1
  Cu  Cu188  1  0.76354753  0.33942863  0.16349553  1
  Cu  Cu189  1  0.76354753  0.33942863  0.66349553  1
  Cu  Cu190  1  0.76354753  0.83942863  0.16349553  1
  Cu  Cu191  1  0.76354753  0.83942863  0.66349553  1
  O  O192  1  0.16958208  0.40026405  0.18923154  1
  O  O193  1  0.16958208  0.40026405  0.68923154  1
  O  O194  1  0.16958208  0.90026405  0.18923154  1
  O  O195  1  0.16958208  0.90026405  0.68923154  1
  O  O196  1  0.50291542  0.40026405  0.18923154  1
  O  O197  1  0.50291542  0.40026405  0.68923154  1
  O  O198  1  0.50291542  0.90026405  0.18923154  1
  O  O199  1  0.50291542  0.90026405  0.68923154  1
  O  O200  1  0.83624875  0.40026405  0.18923154  1
  O  O201  1  0.83624875  0.40026405  0.68923154  1
  O  O202  1  0.83624875  0.90026405  0.18923154  1
  O  O203  1  0.83624875  0.90026405  0.68923154  1
  O  O204  1  0.16375125  0.15026405  0.06076846  1
  O  O205  1  0.16375125  0.15026405  0.56076846  1
  O  O206  1  0.16375125  0.65026405  0.06076846  1
  O  O207  1  0.16375125  0.65026405  0.56076846  1
  O  O208  1  0.49708458  0.15026405  0.06076846  1
  O  O209  1  0.49708458  0.15026405  0.56076846  1
  O  O210  1  0.49708458  0.65026405  0.06076846  1
  O  O211  1  0.49708458  0.65026405  0.56076846  1
  O  O212  1  0.83041792  0.15026405  0.06076846  1
  O  O213  1  0.83041792  0.15026405  0.56076846  1
  O  O214  1  0.83041792  0.65026405  0.06076846  1
  O  O215  1  0.83041792  0.65026405  0.56076846  1
  O  O216  1  0.16375125  0.09973595  0.31076846  1
  O  O217  1  0.16375125  0.09973595  0.81076846  1
  O  O218  1  0.16375125  0.59973595  0.31076846  1
  O  O219  1  0.16375125  0.59973595  0.81076846  1
  O  O220  1  0.49708458  0.09973595  0.31076846  1
  O  O221  1  0.49708458  0.09973595  0.81076846  1
  O  O222  1  0.49708458  0.59973595  0.31076846  1
  O  O223  1  0.49708458  0.59973595  0.81076846  1
  O  O224  1  0.83041792  0.09973595  0.31076846  1
  O  O225  1  0.83041792  0.09973595  0.81076846  1
  O  O226  1  0.83041792  0.59973595  0.31076846  1
  O  O227  1  0.83041792  0.59973595  0.81076846  1
  O  O228  1  0.16958208  0.34973595  0.43923154  1
  O  O229  1  0.16958208  0.34973595  0.93923154  1
  O  O230  1  0.16958208  0.84973595  0.43923154  1
  O  O231  1  0.16958208  0.84973595  0.93923154  1
  O  O232  1  0.50291542  0.34973595  0.43923154  1
  O  O233  1  0.50291542  0.34973595  0.93923154  1
  O  O234  1  0.50291542  0.84973595  0.43923154  1
  O  O235  1  0.50291542  0.84973595  0.93923154  1
  O  O236  1  0.83624875  0.34973595  0.43923154  1
  O  O237  1  0.83624875  0.34973595  0.93923154  1
  O  O238  1  0.83624875  0.84973595  0.43923154  1
  O  O239  1  0.83624875  0.84973595  0.93923154  1
  O  O240  1  0.31071579  0.21966714  0.36125133  1
  O  O241  1  0.31071579  0.21966714  0.86125133  1
  O  O242  1  0.31071579  0.71966714  0.36125133  1
  O  O243  1  0.31071579  0.71966714  0.86125133  1
  O  O244  1  0.64404912  0.21966714  0.36125133  1
  O  O245  1  0.64404912  0.21966714  0.86125133  1
  O  O246  1  0.64404912  0.71966714  0.36125133  1
  O  O247  1  0.64404912  0.71966714  0.86125133  1
  O  O248  1  0.97738245  0.21966714  0.36125133  1
  O  O249  1  0.97738245  0.21966714  0.86125133  1
  O  O250  1  0.97738245  0.71966714  0.36125133  1
  O  O251  1  0.97738245  0.71966714  0.86125133  1
  O  O252  1  0.31071579  0.03033286  0.11125133  1
  O  O253  1  0.31071579  0.03033286  0.61125133  1
  O  O254  1  0.31071579  0.53033286  0.11125133  1
  O  O255  1  0.31071579  0.53033286  0.61125133  1
  O  O256  1  0.64404912  0.03033286  0.11125133  1
  O  O257  1  0.64404912  0.03033286  0.61125133  1
  O  O258  1  0.64404912  0.53033286  0.11125133  1
  O  O259  1  0.64404912  0.53033286  0.61125133  1
  O  O260  1  0.97738245  0.03033286  0.11125133  1
  O  O261  1  0.97738245  0.03033286  0.61125133  1
  O  O262  1  0.97738245  0.53033286  0.11125133  1
  O  O263  1  0.97738245  0.53033286  0.61125133  1
  O  O264  1  0.02261755  0.46966714  0.38874867  1
  O  O265  1  0.02261755  0.46966714  0.88874867  1
  O  O266  1  0.02261755  0.96966714  0.38874867  1
  O  O267  1  0.02261755  0.96966714  0.88874867  1
  O  O268  1  0.35595088  0.46966714  0.38874867  1
  O  O269  1  0.35595088  0.46966714  0.88874867  1
  O  O270  1  0.35595088  0.96966714  0.38874867  1
  O  O271  1  0.35595088  0.96966714  0.88874867  1
  O  O272  1  0.68928421  0.46966714  0.38874867  1
  O  O273  1  0.68928421  0.46966714  0.88874867  1
  O  O274  1  0.68928421  0.96966714  0.38874867  1
  O  O275  1  0.68928421  0.96966714  0.88874867  1
  O  O276  1  0.02261755  0.28033286  0.13874867  1
  O  O277  1  0.02261755  0.28033286  0.63874867  1
  O  O278  1  0.02261755  0.78033286  0.13874867  1
  O  O279  1  0.02261755  0.78033286  0.63874867  1
  O  O280  1  0.35595088  0.28033286  0.13874867  1
  O  O281  1  0.35595088  0.28033286  0.63874867  1
  O  O282  1  0.35595088  0.78033286  0.13874867  1
  O  O283  1  0.35595088  0.78033286  0.63874867  1
  O  O284  1  0.68928421  0.28033286  0.13874867  1
  O  O285  1  0.68928421  0.28033286  0.63874867  1
  O  O286  1  0.68928421  0.78033286  0.13874867  1
  O  O287  1  0.68928421  0.78033286  0.63874867  1
