# generated using pymatgen
data_BaBe2Si2O7
_symmetry_space_group_name_H-M   'P 1'
_cell_length_a   11.64958049
_cell_length_b   9.83901414
_cell_length_c   9.34539568
_cell_angle_alpha   90.00000000
_cell_angle_beta   90.00000000
_cell_angle_gamma   90.00000000
_symmetry_Int_Tables_number   1
_chemical_formula_structural   BaBe2Si2O7
_chemical_formula_sum   'Ba8 Be16 Si16 O56'
_cell_volume   1071.17287098
_cell_formula_units_Z   8
loop_
 _symmetry_equiv_pos_site_id
 _symmetry_equiv_pos_as_xyz
  1  'x, y, z'
loop_
 _atom_site_type_symbol
 _atom_site_label
 _atom_site_symmetry_multiplicity
 _atom_site_fract_x
 _atom_site_fract_y
 _atom_site_fract_z
 _atom_site_occupancy
  Ba  Ba0  1  0.00000000  0.10112952  0.00412256  1
  Ba  Ba1  1  0.00000000  0.10112952  0.50412256  1
  Ba  Ba2  1  0.00000000  0.60112952  0.00412256  1
  Ba  Ba3  1  0.00000000  0.60112952  0.50412256  1
  Ba  Ba4  1  0.50000000  0.39887048  0.25412256  1
  Ba  Ba5  1  0.50000000  0.39887048  0.75412256  1
  Ba  Ba6  1  0.50000000  0.89887048  0.25412256  1
  Ba  Ba7  1  0.50000000  0.89887048  0.75412256  1
  Be  Be8  1  0.74927821  0.08437759  0.25895069  1
  Be  Be9  1  0.74927821  0.08437759  0.75895069  1
  Be  Be10  1  0.74927821  0.58437759  0.25895069  1
  Be  Be11  1  0.74927821  0.58437759  0.75895069  1
  Be  Be12  1  0.75072179  0.41562241  0.00895069  1
  Be  Be13  1  0.75072179  0.41562241  0.50895069  1
  Be  Be14  1  0.75072179  0.91562241  0.00895069  1
  Be  Be15  1  0.75072179  0.91562241  0.50895069  1
  Be  Be16  1  0.25072179  0.08437759  0.25895069  1
  Be  Be17  1  0.25072179  0.08437759  0.75895069  1
  Be  Be18  1  0.25072179  0.58437759  0.25895069  1
  Be  Be19  1  0.25072179  0.58437759  0.75895069  1
  Be  Be20  1  0.24927821  0.41562241  0.00895069  1
  Be  Be21  1  0.24927821  0.41562241  0.50895069  1
  Be  Be22  1  0.24927821  0.91562241  0.00895069  1
  Be  Be23  1  0.24927821  0.91562241  0.50895069  1
  Si  Si24  1  0.62845322  0.16283808  0.01558847  1
  Si  Si25  1  0.62845322  0.16283808  0.51558847  1
  Si  Si26  1  0.62845322  0.66283808  0.01558847  1
  Si  Si27  1  0.62845322  0.66283808  0.51558847  1
  Si  Si28  1  0.87154678  0.33716192  0.26558847  1
  Si  Si29  1  0.87154678  0.33716192  0.76558847  1
  Si  Si30  1  0.87154678  0.83716192  0.26558847  1
  Si  Si31  1  0.87154678  0.83716192  0.76558847  1
  Si  Si32  1  0.12845322  0.33716192  0.26558847  1
  Si  Si33  1  0.12845322  0.33716192  0.76558847  1
  Si  Si34  1  0.12845322  0.83716192  0.26558847  1
  Si  Si35  1  0.12845322  0.83716192  0.76558847  1
  Si  Si36  1  0.37154678  0.16283808  0.01558847  1
  Si  Si37  1  0.37154678  0.16283808  0.51558847  1
  Si  Si38  1  0.37154678  0.66283808  0.01558847  1
  Si  Si39  1  0.37154678  0.66283808  0.51558847  1
  O  O40  1  0.00000000  0.38936337  0.20883829  1
  O  O41  1  0.00000000  0.38936337  0.70883829  1
  O  O42  1  0.00000000  0.88936337  0.20883829  1
  O  O43  1  0.00000000  0.88936337  0.70883829  1
  O  O44  1  0.50000000  0.11063663  0.45883829  1
  O  O45  1  0.50000000  0.11063663  0.95883829  1
  O  O46  1  0.50000000  0.61063663  0.45883829  1
  O  O47  1  0.50000000  0.61063663  0.95883829  1
  O  O48  1  0.36750831  0.13556577  0.18666010  1
  O  O49  1  0.36750831  0.13556577  0.68666010  1
  O  O50  1  0.36750831  0.63556577  0.18666010  1
  O  O51  1  0.36750831  0.63556577  0.68666010  1
  O  O52  1  0.13249169  0.36443423  0.43666010  1
  O  O53  1  0.13249169  0.36443423  0.93666010  1
  O  O54  1  0.13249169  0.86443423  0.43666010  1
  O  O55  1  0.13249169  0.86443423  0.93666010  1
  O  O56  1  0.63249169  0.13556577  0.18666010  1
  O  O57  1  0.63249169  0.13556577  0.68666010  1
  O  O58  1  0.63249169  0.63556577  0.18666010  1
  O  O59  1  0.63249169  0.63556577  0.68666010  1
  O  O60  1  0.86750831  0.36443423  0.43666010  1
  O  O61  1  0.86750831  0.36443423  0.93666010  1
  O  O62  1  0.86750831  0.86443423  0.43666010  1
  O  O63  1  0.86750831  0.86443423  0.93666010  1
  O  O64  1  0.36180070  0.32373303  0.48046380  1
  O  O65  1  0.36180070  0.32373303  0.98046380  1
  O  O66  1  0.36180070  0.82373303  0.48046380  1
  O  O67  1  0.36180070  0.82373303  0.98046380  1
  O  O68  1  0.13819930  0.17626697  0.23046380  1
  O  O69  1  0.13819930  0.17626697  0.73046380  1
  O  O70  1  0.13819930  0.67626697  0.23046380  1
  O  O71  1  0.13819930  0.67626697  0.73046380  1
  O  O72  1  0.86180070  0.17626697  0.23046380  1
  O  O73  1  0.86180070  0.17626697  0.73046380  1
  O  O74  1  0.86180070  0.67626697  0.23046380  1
  O  O75  1  0.86180070  0.67626697  0.73046380  1
  O  O76  1  0.63819930  0.32373303  0.48046380  1
  O  O77  1  0.63819930  0.32373303  0.98046380  1
  O  O78  1  0.63819930  0.82373303  0.48046380  1
  O  O79  1  0.63819930  0.82373303  0.98046380  1
  O  O80  1  0.22452582  0.43280038  0.18445726  1
  O  O81  1  0.22452582  0.43280038  0.68445726  1
  O  O82  1  0.22452582  0.93280038  0.18445726  1
  O  O83  1  0.22452582  0.93280038  0.68445726  1
  O  O84  1  0.27547418  0.06719962  0.43445726  1
  O  O85  1  0.27547418  0.06719962  0.93445726  1
  O  O86  1  0.27547418  0.56719962  0.43445726  1
  O  O87  1  0.27547418  0.56719962  0.93445726  1
  O  O88  1  0.72452582  0.06719962  0.43445726  1
  O  O89  1  0.72452582  0.06719962  0.93445726  1
  O  O90  1  0.72452582  0.56719962  0.43445726  1
  O  O91  1  0.72452582  0.56719962  0.93445726  1
  O  O92  1  0.77547418  0.43280038  0.18445726  1
  O  O93  1  0.77547418  0.43280038  0.68445726  1
  O  O94  1  0.77547418  0.93280038  0.18445726  1
  O  O95  1  0.77547418  0.93280038  0.68445726  1
