# generated using pymatgen
data_Cs2LiAsO4
_symmetry_space_group_name_H-M   'P 1'
_cell_length_a   11.92365457
_cell_length_b   12.18962879
_cell_length_c   16.30766331
_cell_angle_alpha   90.00000000
_cell_angle_beta   90.00000000
_cell_angle_gamma   90.00000000
_symmetry_Int_Tables_number   1
_chemical_formula_structural   Cs2LiAsO4
_chemical_formula_sum   'Cs32 Li16 As16 O64'
_cell_volume   2370.23606714
_cell_formula_units_Z   16
loop_
 _symmetry_equiv_pos_site_id
 _symmetry_equiv_pos_as_xyz
  1  'x, y, z'
loop_
 _atom_site_type_symbol
 _atom_site_label
 _atom_site_symmetry_multiplicity
 _atom_site_fract_x
 _atom_site_fract_y
 _atom_site_fract_z
 _atom_site_occupancy
  Cs  Cs0  1  0.25000000  -0.43529003  0.42625501  1
  Cs  Cs1  1  0.25000000  -0.43529003  0.92625501  1
  Cs  Cs2  1  0.75000000  -0.43529003  0.42625501  1
  Cs  Cs3  1  0.75000000  -0.43529003  0.92625501  1
  Cs  Cs4  1  0.50000000  0.06470997  0.42625501  1
  Cs  Cs5  1  0.50000000  0.06470997  0.92625501  1
  Cs  Cs6  1  1.00000000  0.06470997  0.42625501  1
  Cs  Cs7  1  1.00000000  0.06470997  0.92625501  1
  Cs  Cs8  1  0.25000000  0.43529003  0.17625501  1
  Cs  Cs9  1  0.25000000  0.43529003  0.67625501  1
  Cs  Cs10  1  0.75000000  0.43529003  0.17625501  1
  Cs  Cs11  1  0.75000000  0.43529003  0.67625501  1
  Cs  Cs12  1  0.50000000  0.93529003  0.17625501  1
  Cs  Cs13  1  0.50000000  0.93529003  0.67625501  1
  Cs  Cs14  1  1.00000000  0.93529003  0.17625501  1
  Cs  Cs15  1  1.00000000  0.93529003  0.67625501  1
  Cs  Cs16  1  0.25000000  0.10421288  0.24861563  1
  Cs  Cs17  1  0.25000000  0.10421288  0.74861563  1
  Cs  Cs18  1  0.75000000  0.10421288  0.24861563  1
  Cs  Cs19  1  0.75000000  0.10421288  0.74861563  1
  Cs  Cs20  1  0.50000000  0.60421288  0.24861563  1
  Cs  Cs21  1  0.50000000  0.60421288  0.74861563  1
  Cs  Cs22  1  1.00000000  0.60421288  0.24861563  1
  Cs  Cs23  1  1.00000000  0.60421288  0.74861563  1
  Cs  Cs24  1  0.25000000  -0.10421288  0.49861563  1
  Cs  Cs25  1  0.25000000  -0.10421288  0.99861563  1
  Cs  Cs26  1  0.75000000  -0.10421288  0.49861563  1
  Cs  Cs27  1  0.75000000  -0.10421288  0.99861563  1
  Cs  Cs28  1  0.50000000  0.39578712  0.49861563  1
  Cs  Cs29  1  0.50000000  0.39578712  0.99861563  1
  Cs  Cs30  1  1.00000000  0.39578712  0.49861563  1
  Cs  Cs31  1  1.00000000  0.39578712  0.99861563  1
  Li  Li32  1  0.25000000  0.29409394  0.38429910  1
  Li  Li33  1  0.25000000  0.29409394  0.88429910  1
  Li  Li34  1  0.75000000  0.29409394  0.38429910  1
  Li  Li35  1  0.75000000  0.29409394  0.88429910  1
  Li  Li36  1  0.50000000  0.79409394  0.38429910  1
  Li  Li37  1  0.50000000  0.79409394  0.88429910  1
  Li  Li38  1  1.00000000  0.79409394  0.38429910  1
  Li  Li39  1  1.00000000  0.79409394  0.88429910  1
  Li  Li40  1  0.25000000  -0.29409394  0.13429910  1
  Li  Li41  1  0.25000000  -0.29409394  0.63429910  1
  Li  Li42  1  0.75000000  -0.29409394  0.13429910  1
  Li  Li43  1  0.75000000  -0.29409394  0.63429910  1
  Li  Li44  1  0.50000000  0.20590606  0.13429910  1
  Li  Li45  1  0.50000000  0.20590606  0.63429910  1
  Li  Li46  1  1.00000000  0.20590606  0.13429910  1
  Li  Li47  1  1.00000000  0.20590606  0.63429910  1
  As  As48  1  0.25000000  0.19533744  0.02724180  1
  As  As49  1  0.25000000  0.19533744  0.52724180  1
  As  As50  1  0.75000000  0.19533744  0.02724180  1
  As  As51  1  0.75000000  0.19533744  0.52724180  1
  As  As52  1  0.50000000  0.69533744  0.02724180  1
  As  As53  1  0.50000000  0.69533744  0.52724180  1
  As  As54  1  1.00000000  0.69533744  0.02724180  1
  As  As55  1  1.00000000  0.69533744  0.52724180  1
  As  As56  1  0.25000000  -0.19533744  0.27724180  1
  As  As57  1  0.25000000  -0.19533744  0.77724180  1
  As  As58  1  0.75000000  -0.19533744  0.27724180  1
  As  As59  1  0.75000000  -0.19533744  0.77724180  1
  As  As60  1  0.50000000  0.30466256  0.27724180  1
  As  As61  1  0.50000000  0.30466256  0.77724180  1
  As  As62  1  1.00000000  0.30466256  0.27724180  1
  As  As63  1  1.00000000  0.30466256  0.77724180  1
  O  O64  1  0.13244776  0.15540671  0.07993092  1
  O  O65  1  0.13244776  0.15540671  0.57993092  1
  O  O66  1  0.63244776  0.15540671  0.07993092  1
  O  O67  1  0.63244776  0.15540671  0.57993092  1
  O  O68  1  0.38244776  0.65540671  0.07993092  1
  O  O69  1  0.38244776  0.65540671  0.57993092  1
  O  O70  1  0.88244776  0.65540671  0.07993092  1
  O  O71  1  0.88244776  0.65540671  0.57993092  1
  O  O72  1  0.36755224  -0.15540671  0.32993092  1
  O  O73  1  0.36755224  -0.15540671  0.82993092  1
  O  O74  1  0.86755224  -0.15540671  0.32993092  1
  O  O75  1  0.86755224  -0.15540671  0.82993092  1
  O  O76  1  0.61755224  0.34459329  0.32993092  1
  O  O77  1  0.61755224  0.34459329  0.82993092  1
  O  O78  1  1.11755224  0.34459329  0.32993092  1
  O  O79  1  1.11755224  0.34459329  0.82993092  1
  O  O80  1  0.25000000  0.13691487  0.43086939  1
  O  O81  1  0.25000000  0.13691487  0.93086939  1
  O  O82  1  0.75000000  0.13691487  0.43086939  1
  O  O83  1  0.75000000  0.13691487  0.93086939  1
  O  O84  1  0.50000000  0.63691487  0.43086939  1
  O  O85  1  0.50000000  0.63691487  0.93086939  1
  O  O86  1  1.00000000  0.63691487  0.43086939  1
  O  O87  1  1.00000000  0.63691487  0.93086939  1
  O  O88  1  0.25000000  -0.13691487  0.18086939  1
  O  O89  1  0.25000000  -0.13691487  0.68086939  1
  O  O90  1  0.75000000  -0.13691487  0.18086939  1
  O  O91  1  0.75000000  -0.13691487  0.68086939  1
  O  O92  1  0.50000000  0.36308513  0.18086939  1
  O  O93  1  0.50000000  0.36308513  0.68086939  1
  O  O94  1  1.00000000  0.36308513  0.18086939  1
  O  O95  1  1.00000000  0.36308513  0.68086939  1
  O  O96  1  0.36755224  0.15540671  0.07993092  1
  O  O97  1  0.36755224  0.15540671  0.57993092  1
  O  O98  1  0.86755224  0.15540671  0.07993092  1
  O  O99  1  0.86755224  0.15540671  0.57993092  1
  O  O100  1  0.61755224  0.65540671  0.07993092  1
  O  O101  1  0.61755224  0.65540671  0.57993092  1
  O  O102  1  1.11755224  0.65540671  0.07993092  1
  O  O103  1  1.11755224  0.65540671  0.57993092  1
  O  O104  1  0.13244776  -0.15540671  0.32993092  1
  O  O105  1  0.13244776  -0.15540671  0.82993092  1
  O  O106  1  0.63244776  -0.15540671  0.32993092  1
  O  O107  1  0.63244776  -0.15540671  0.82993092  1
  O  O108  1  0.38244776  0.34459329  0.32993092  1
  O  O109  1  0.38244776  0.34459329  0.82993092  1
  O  O110  1  0.88244776  0.34459329  0.32993092  1
  O  O111  1  0.88244776  0.34459329  0.82993092  1
  O  O112  1  0.25000000  -0.33444850  0.25710774  1
  O  O113  1  0.25000000  -0.33444850  0.75710774  1
  O  O114  1  0.75000000  -0.33444850  0.25710774  1
  O  O115  1  0.75000000  -0.33444850  0.75710774  1
  O  O116  1  0.50000000  0.16555150  0.25710774  1
  O  O117  1  0.50000000  0.16555150  0.75710774  1
  O  O118  1  1.00000000  0.16555150  0.25710774  1
  O  O119  1  1.00000000  0.16555150  0.75710774  1
  O  O120  1  0.25000000  0.33444850  0.00710774  1
  O  O121  1  0.25000000  0.33444850  0.50710774  1
  O  O122  1  0.75000000  0.33444850  0.00710774  1
  O  O123  1  0.75000000  0.33444850  0.50710774  1
  O  O124  1  0.50000000  0.83444850  0.00710774  1
  O  O125  1  0.50000000  0.83444850  0.50710774  1
  O  O126  1  1.00000000  0.83444850  0.00710774  1
  O  O127  1  1.00000000  0.83444850  0.50710774  1
